 18
 0.000000
  C -1.515701 -0.000031 -0.000279
  C -0.651641 -1.204240 -0.395123
  C 0.651824 -1.203943 0.395399
  C 1.515743 0.000089 -0.000233
  C 0.651600 1.204158 -0.395207
  C -0.651813 1.203969 0.395443
  H -1.202729 2.129187 0.216667
  H -0.416950 1.164098 1.460806
  H 1.202359 2.129357 -0.216038
  H 0.416696 1.164670 -1.460564
  H 2.162276 -0.267367 -0.838430
  H 2.162782 0.267610 0.837579
  H 0.416951 -1.164162 1.460757
  H 1.202726 -2.129148 0.216574
  H -0.416775 -1.165099 -1.460483
  H -1.202443 -2.129349 -0.215678
  H -2.162973 -0.267320 0.837424
  H -2.162079 0.267483 -0.838610
 18
 0.107572
  C -1.495701 -0.240271 0.028320
  C -0.462212 -1.286831 -0.400828
  C 0.839968 -1.104917 0.370268
  C 1.495691 0.240317 0.028389
  C 0.462185 1.286793 -0.400905
  C -0.839959 1.104941 0.370252
  H -1.528469 1.918459 0.134261
  H -0.625070 1.157499 1.439455
  H 0.862662 2.287442 -0.227198
  H 0.256375 1.197279 -1.469257
  H 2.221087 0.104398 -0.776189
  H 2.041645 0.603846 0.901182
  H 0.625107 -1.157538 1.439476
  H 1.528480 -1.918420 0.134231
  H -0.256410 -1.197538 -1.469204
  H -0.862706 -2.287429 -0.226928
  H -2.041841 -0.603709 0.901035
  H -2.220978 -0.104305 -0.776358
 18
 0.343217
  C -1.457223 -0.406032 0.057506
  C -0.324605 -1.325445 -0.406671
  C 0.965993 -1.020939 0.345048
  C 1.457206 0.406072 0.057574
  C 0.324593 1.325426 -0.406728
  C -0.965995 1.020964 0.345018
  H -1.736798 1.737222 0.054370
  H -0.786852 1.148727 1.414503
  H 0.612968 2.365182 -0.239420
  H 0.151925 1.201425 -1.477429
  H 2.232875 0.382962 -0.710398
  H 1.907581 0.818613 0.962505
  H 0.786865 -1.148742 1.414534
  H 1.736798 -1.737184 0.054378
  H -0.151917 -1.201599 -1.477385
  H -0.612993 -2.365179 -0.239227
  H -1.907746 -0.818527 0.962385
  H -2.232811 -0.382882 -0.710551
 18
 0.609660
  C -1.411908 -0.532444 0.087412
  C -0.215361 -1.343614 -0.413207
  C 1.060861 -0.946162 0.319887
  C 1.411889 0.532474 0.087475
  C 0.215360 1.343610 -0.413243
  C -1.060874 0.946186 0.319846
  H -1.885232 1.574835 -0.022200
  H -0.925085 1.137290 1.386222
  H 0.412485 2.405973 -0.254341
  H 0.077478 1.192903 -1.485401
  H 2.221885 0.611947 -0.640229
  H 1.771374 0.967872 1.021869
  H 0.925067 -1.137284 1.386263
  H 1.885228 -1.574804 -0.022157
  H -0.077441 -1.193004 -1.485370
  H -0.412491 -2.405961 -0.254226
  H -1.771501 -0.967820 1.021774
  H -2.221853 -0.611891 -0.640358
 18
 0.895606
  C -1.361655 -0.638150 0.117081
  C -0.120444 -1.353882 -0.416274
  C 1.141567 -0.874261 0.292496
  C 1.361644 0.638168 0.117125
  C 0.120439 1.353904 -0.416243
  C -1.141577 0.874274 0.292511
  H -2.002354 1.416454 -0.103558
  H -1.060773 1.120761 1.353068
  H 0.236373 2.428800 -0.260883
  H 0.020264 1.187066 -1.490158
  H 2.191683 0.814781 -0.569719
  H 1.636877 1.077181 1.078036
  H 1.060760 -1.120790 1.353041
  H 2.002341 -1.416425 -0.103584
  H -0.020252 -1.187051 -1.490192
  H -0.236378 -2.428777 -0.260911
  H -1.636930 -1.077186 1.077964
  H -2.191680 -0.814727 -0.569786
 18
 1.132205
  C -1.306902 -0.730058 0.146789
  C -0.033612 -1.357781 -0.418301
  C 1.211780 -0.801621 0.264384
  C 1.306899 0.730075 0.146840
  C 0.033620 1.357807 -0.418283
  C -1.211801 0.801640 0.264344
  H -2.096035 1.258054 -0.184622
  H -1.192561 1.094650 1.315895
  H 0.074070 2.438606 -0.265352
  H -0.027831 1.181112 -1.493516
  H 2.146347 1.000012 -0.496837
  H 1.502344 1.158933 1.131560
  H 1.192485 -1.094638 1.315930
  H 2.096032 -1.258040 -0.184534
  H 0.027882 -1.181078 -1.493531
  H -0.074064 -2.438583 -0.265382
  H -1.502376 -1.158921 1.131509
  H -2.146346 -0.999994 -0.496900
 18
 1.283740
  C -1.247867 -0.811526 0.176444
  C 0.048181 -1.356632 -0.419639
  C 1.273611 -0.726722 0.235763
  C 1.247870 0.811538 0.176485
  C -0.048169 1.356664 -0.419614
  C -1.273636 0.726738 0.235705
  H -2.170403 1.097557 -0.264373
  H -1.320915 1.057231 1.275145
  H -0.079609 2.438051 -0.268356
  H -0.070556 1.175530 -1.495610
  H 2.087199 1.171452 -0.421684
  H 1.368113 1.218727 1.182239
  H 1.320800 -1.057211 1.275212
  H 2.170408 -1.097560 -0.264234
  H 0.070612 -1.175453 -1.495629
  H 0.079619 -2.438022 -0.268421
  H -1.368103 -1.218701 1.182205
  H -2.087198 -1.171456 -0.421708
 18
 1.324910
  C -1.184774 -0.884323 0.206141
  C 0.126726 -1.352078 -0.419225
  C 1.328691 -0.648750 0.205721
  C 1.184788 0.884333 0.206170
  C -0.126713 1.352121 -0.419183
  C -1.328717 0.648758 0.205657
  H -2.227089 0.932724 -0.345747
  H -1.448931 1.007773 1.229609
  H -0.227674 2.429112 -0.267045
  H -0.109719 1.173260 -1.495696
  H 2.014984 1.330906 -0.344371
  H 1.235359 1.258776 1.230407
  H 1.448779 -1.007763 1.229693
  H 2.227116 -0.932750 -0.345580
  H 0.109770 -1.173134 -1.495724
  H 0.227686 -2.429075 -0.267164
  H -1.235304 -1.258737 1.230396
  H -2.014986 -1.330930 -0.344351
 18
 1.285158
  C 1.117161 0.950249 0.235071
  C -0.204121 1.342020 -0.419749
  C -1.376373 0.566338 0.177149
  C -1.117192 -0.950211 0.235020
  C 0.204143 -1.342023 -0.419673
  C 1.376394 -0.566290 0.177170
  H 2.268428 -0.765192 -0.419928
  H 1.568800 -0.943571 1.183364
  H 0.373485 -2.410547 -0.268477
  H 0.149246 -1.168011 -1.495682
  H -1.929502 -1.480047 -0.266164
  H -1.103281 -1.284759 1.274147
  H -1.568691 0.943624 1.183361
  H -2.268444 0.765284 -0.419884
  H -0.149178 1.167884 -1.495731
  H -0.373470 2.410552 -0.268677
  H 1.103108 1.284749 1.274216
  H 1.929527 1.480131 -0.265980
 18
 1.133497
  C 1.043648 1.011022 0.264123
  C -0.282946 1.328386 -0.418378
  C -1.418851 0.477158 0.147079
  C -1.043685 -1.010981 0.264064
  C 0.282979 -1.328392 -0.418289
  C 1.418878 -0.477093 0.147091
  H 2.293883 -0.588184 -0.496255
  H 1.689523 -0.862477 1.131982
  H 0.521568 -2.383309 -0.265335
  H 0.190337 -1.165989 -1.493540
  H -1.828760 -1.622065 -0.185373
  H -0.971169 -1.295887 1.315522
  H -1.689369 0.862555 1.132001
  H -2.293915 0.588308 -0.496177
  H -0.190244 1.165825 -1.493599
  H -0.521541 2.383323 -0.265585
  H 0.970962 1.295849 1.315591
  H 1.828772 1.622165 -0.185145
 18
 0.897312
  C 0.963493 1.067498 0.292285
  C -0.364816 1.309324 -0.416359
  C -1.454967 0.379814 0.117381
  C -0.963538 -1.067455 0.292214
  C 0.364862 -1.309326 -0.416258
  C 1.455000 -0.379733 0.117384
  H 2.303565 -0.402576 -0.569157
  H 1.805144 -0.761210 1.078473
  H 0.674392 -2.345200 -0.260881
  H 0.236280 -1.163446 -1.490198
  H -1.711240 -1.756969 -0.104374
  H -0.839531 -1.295626 1.352707
  H -1.804955 0.761318 1.078518
  H -2.303621 0.402728 -0.569052
  H -0.236151 1.163254 -1.490264
  H -0.674350 2.345227 -0.261178
  H 0.839295 1.295549 1.352777
  H 1.711233 1.757077 -0.104093
 18
 0.611561
  C 0.874971 1.120464 0.319726
  C -0.451749 1.283543 -0.413318
  C -1.484221 0.271967 0.087699
  C -0.875041 -1.120441 0.319527
  C 0.451832 -1.283513 -0.413254
  C 1.484245 -0.271871 0.087765
  H 2.295695 -0.205658 -0.639649
  H 1.915305 -0.636028 1.022360
  H 0.835375 -2.293649 -0.254326
  H 0.289557 -1.159774 -1.485447
  H -1.573904 -1.885922 -0.023088
  H -0.707602 -1.284790 1.385866
  H -1.915148 0.636115 1.022355
  H -2.295748 0.205878 -0.639640
  H -0.289303 1.159643 -1.485463
  H -0.835300 2.293696 -0.254587
  H 0.707263 1.284587 1.386064
  H 1.573893 1.886042 -0.022560
 18
 0.344949
  C 0.775695 1.172229 0.344872
  C -0.548087 1.249629 -0.406820
  C -1.505365 0.149060 0.057845
  C -0.775763 -1.172198 0.344717
  C 0.548172 -1.249608 -0.406722
  C 1.505389 -0.148936 0.057861
  H 2.265763 0.007301 -0.709868
  H 2.019772 -0.477657 0.962998
  H 1.011292 -2.224165 -0.239360
  H 0.357022 -1.157146 -1.477468
  H -1.411634 -2.010346 0.053489
  H -0.577495 -1.267771 1.414192
  H -2.019560 0.477823 0.963071
  H -2.265876 -0.007067 -0.709768
  H -0.356761 1.156940 -1.477516
  H -1.011211 2.224233 -0.239724
  H 0.577183 1.267545 1.414325
  H 1.411603 2.010462 0.053989
 18
 0.109116
  C 0.654856 1.223951 0.370027
  C -0.659710 1.197498 -0.401038
  C -1.514903 0.001101 0.028796
  C -0.654925 -1.223920 0.369880
  C 0.659804 -1.197469 -0.400925
  C 1.514914 -0.000949 0.028781
  H 2.210154 0.247687 -0.775485
  H 2.111003 -0.273635 0.901873
  H 1.213280 -2.122315 -0.227198
  H 0.442785 -1.141450 -1.469343
  H -1.206241 -2.135813 0.133158
  H -0.434568 -1.242629 1.439108
  H -2.110774 0.273872 0.902010
  H -2.210336 -0.247444 -0.775333
  H -0.442480 1.141204 -1.469401
  H -1.213184 2.122403 -0.227637
  H 0.434271 1.242350 1.439216
  H 1.206201 2.135933 0.133690
 18
 0.000006
  C 0.650842 1.204621 0.395315
  C -0.652547 1.203536 -0.395286
  C -1.515765 -0.001053 0.000040
  C -0.650933 -1.204561 0.395141
  C 0.652649 -1.203532 -0.395188
  C 1.515740 0.001235 -0.000014
  H 2.162244 0.269195 -0.838057
  H 2.162807 -0.265704 0.837935
  H 1.204176 -2.128306 -0.215924
  H 0.417906 -1.164283 -1.460604
  H -1.201064 -2.130116 0.215717
  H -0.416251 -1.165077 1.460552
  H -2.162555 0.265970 0.838078
  H -2.162421 -0.268922 -0.837759
  H -0.417550 1.163920 -1.460598
  H -1.204042 2.128375 -0.216450
  H 0.415891 1.164780 1.460651
  H 1.201021 2.130246 0.216380
