18
cyclohexane.twistboat.xtb.xyz - modified
C      -1.18573121     -0.94086667      0.07785044
C       0.25451575     -1.33520009      0.42828026
C       1.24253155     -0.55135136     -0.42809199
C       1.18561321      0.94093204     -0.07809799
C      -0.22271976      1.36048437      0.36135578
C      -1.27426174      0.52611544     -0.36116369
H      -1.10875301      0.60689079     -1.43716161
H      -2.27305588      0.91468619     -0.15397604
H      -0.33881227      1.21754920      1.43737538
H      -0.37417083      2.42149198      0.15440157
H       1.49126010      1.52499202     -0.94842245
H       1.89177484      1.16004278      0.72524378
H       2.25574324     -0.92837454     -0.27720084
H       0.99161304     -0.70046776     -1.48001874
H       0.39149154     -2.40762982      0.27769743
H       0.45649866     -1.12445970      1.48019836
H      -1.82430344     -1.10627351      0.94787465
H      -1.55911301     -1.57858507     -0.72587285
