 18
 0.000000
  C -0.651530 -1.204143 0.395249
  C 0.651863 -1.203887 -0.395401
  C 1.515798 0.000119 0.000190
  C 0.651626 1.204164 0.395097
  C -0.652005 1.203952 -0.395212
  C -1.515769 -0.000238 0.000109
  H -2.162229 -0.267843 -0.838069
  H -2.162819 0.266880 0.837975
  H -0.417346 1.164697 -1.460712
  H 1.202314 2.129330 0.215427
  H 0.417059 1.164929 1.460570
  H -1.203014 2.128983 -0.215759
  H 2.162334 -0.267343 0.838415
  H 2.162827 0.267619 -0.837671
  H -1.202343 -2.129368 0.216171
  H 0.417076 -1.164036 -1.460781
  H 1.202923 -2.128996 -0.216592
  H -0.416581 -1.164464 1.460644
 18
 0.522199
  C -0.666067 -1.221604 0.369872
  C 0.666450 -1.221342 -0.370014
  C 1.515905 0.000166 0.000100
  C 0.666193 1.221668 0.369739
  C -0.666542 1.221427 -0.369789
  C -1.515887 -0.000276 -0.000006
  H -2.163780 -0.250262 -0.842541
  H -2.164157 0.249365 0.842330
  H -0.476752 1.242995 -1.444658
  H 1.218771 2.129181 0.117373
  H 0.476399 1.243288 1.444610
  H -1.219402 2.128801 -0.117529
  H 2.163720 -0.249697 0.842723
  H 2.164246 0.250009 -0.842125
  H -1.218681 -2.129225 0.117975
  H 0.476396 -1.242448 -1.444846
  H 1.219336 -2.128833 -0.118261
  H -0.475962 -1.242824 1.444696
 18
 1.898702
  C -0.680638 -1.238286 0.342676
  C 0.681036 -1.238017 -0.342820
  C 1.517459 0.000176 0.000102
  C 0.680762 1.238356 0.342530
  C -0.681121 1.238113 -0.342587
  C -1.517444 -0.000274 -0.000013
  H -2.167124 -0.230288 -0.846888
  H -2.167455 0.229415 0.846687
  H -0.539578 1.319656 -1.421961
  H 1.230106 2.125908 0.019936
  H 0.539187 1.319978 1.421901
  H -1.230736 2.125533 -0.020090
  H 2.167026 -0.229718 0.847092
  H 2.167582 0.230051 -0.846468
  H -1.230026 -2.125965 0.020526
  H 0.539199 -1.319115 -1.422192
  H 1.230698 -2.125590 -0.020810
  H -0.538750 -1.319518 1.422030
 18
 3.901695
  C -0.695545 -1.254847 0.312551
  C 0.695948 -1.254574 -0.312699
  C 1.520075 0.000184 0.000113
  C 0.695666 1.254925 0.312390
  C -0.696033 1.254673 -0.312454
  C -1.520057 -0.000270 -0.000015
  H -2.170889 -0.208099 -0.851678
  H -2.171218 0.207239 0.851475
  H -0.605347 1.393552 -1.391462
  H 1.237028 2.119852 -0.078443
  H 0.604930 1.393905 1.391385
  H -1.237660 2.119484 0.078279
  H 2.170777 -0.207522 0.851904
  H 2.171363 0.207879 -0.851234
  H -1.236975 -2.119932 -0.077835
  H 0.604950 -1.393004 -1.391743
  H 1.237649 -2.119572 0.077547
  H -0.604478 -1.393436 1.391567
 18
 6.319032
  C -0.709863 -1.270422 0.280693
  C 0.710272 -1.270152 -0.280844
  C 1.523199 0.000195 0.000123
  C 0.709981 1.270504 0.280519
  C -0.710351 1.270250 -0.280587
  C -1.523178 -0.000267 -0.000016
  H -2.174904 -0.184929 -0.856231
  H -2.175222 0.184081 0.856022
  H -0.671405 1.464072 -1.354220
  H 1.239381 2.110320 -0.175866
  H 0.670967 1.464451 1.354132
  H -1.240010 2.109957 0.175695
  H 2.174776 -0.184338 0.856472
  H 2.175383 0.184731 -0.855767
  H -1.239359 -2.110431 -0.175249
  H 0.671001 -1.463519 -1.354546
  H 1.240024 -2.110074 0.174954
  H -0.670507 -1.463971 1.354365
 18
 8.967609
  C -0.723186 -1.284718 0.247507
  C 0.723602 -1.284445 -0.247658
  C 1.526485 0.000201 0.000131
  C 0.723297 1.284803 0.247321
  C -0.723674 1.284547 -0.247394
  C -1.526468 -0.000262 -0.000018
  H -2.178861 -0.161319 -0.860345
  H -2.179171 0.160489 0.860132
  H -0.736386 1.531089 -1.310757
  H 1.237241 2.097064 -0.271828
  H 0.735923 1.531485 1.310650
  H -1.237868 2.096714 0.271656
  H 2.178722 -0.160722 0.860602
  H 2.179342 0.161143 -0.859865
  H -1.237242 -2.097199 -0.271204
  H 0.735982 -1.530534 -1.311131
  H 1.237912 -2.096864 0.270914
  H -0.735465 -1.531003 1.310937
 18
 11.667810
  C -0.735187 -1.297487 0.213397
  C 0.735610 -1.297217 -0.213549
  C 1.529683 0.000211 0.000137
  C 0.735291 1.297567 0.213201
  C -0.735673 1.297311 -0.213278
  C -1.529666 -0.000256 -0.000020
  H -2.182499 -0.137693 -0.863943
  H -2.182794 0.136886 0.863720
  H -0.799025 1.594342 -1.261736
  H 1.230662 2.080038 -0.365706
  H 0.798540 1.594754 1.261622
  H -1.231285 2.079701 0.365533
  H 2.182346 -0.137083 0.864205
  H 2.182977 0.137549 -0.863448
  H -1.230691 -2.080199 -0.365077
  H 0.798629 -1.593794 -1.262151
  H 1.231354 -2.079878 0.364789
  H -0.798091 -1.594275 1.261954
 18
 14.259379
  C -0.745650 -1.308562 0.178624
  C 0.746076 -1.308296 -0.178775
  C 1.532603 0.000221 0.000142
  C 0.745740 1.308643 0.178420
  C -0.746129 1.308386 -0.178500
  C -1.532583 -0.000251 -0.000022
  H -2.185633 -0.114271 -0.866991
  H -2.185922 0.113487 0.866767
  H -0.858516 1.653866 -1.207684
  H 1.219631 2.059234 -0.457228
  H 0.858010 1.654290 1.207560
  H -1.220250 2.058908 0.457053
  H 2.185478 -0.113650 0.867263
  H 2.186113 0.114158 -0.866488
  H -1.219692 -2.059417 -0.456601
  H 0.858137 -1.653330 -1.208156
  H 1.220351 -2.059120 0.456322
  H -0.857582 -1.653816 1.207943
 18
 16.597344
  C -0.754389 -1.317765 0.143441
  C 0.754820 -1.317503 -0.143590
  C 1.535139 0.000230 0.000146
  C 0.754468 1.317843 0.143231
  C -0.754862 1.317584 -0.143311
  C -1.535114 -0.000245 -0.000024
  H -2.188304 -0.091120 -0.869441
  H -2.188577 0.090360 0.869210
  H -0.914389 1.709853 -1.149064
  H 1.204095 2.034704 -0.546124
  H 0.913861 1.710292 1.148928
  H -1.204710 2.034392 0.545955
  H 2.188139 -0.090488 0.869714
  H 2.188785 0.091040 -0.868931
  H -1.204192 -2.034915 -0.545505
  H 0.914026 -1.709330 -1.149566
  H 1.204841 -2.034635 0.545231
  H -0.913455 -1.709819 1.149349
 18
 18.558789
  C -0.761338 -1.325067 0.107932
  C 0.761772 -1.324808 -0.108081
  C 1.537177 0.000239 0.000146
  C 0.761402 1.325138 0.107717
  C -0.761799 1.324885 -0.107802
  C -1.537158 -0.000241 -0.000025
  H -2.190279 -0.068271 -0.871401
  H -2.190540 0.067532 0.871168
  H -0.966139 1.762266 -1.086262
  H 1.183956 2.006478 -0.632423
  H 0.965597 1.762714 1.086127
  H -1.184557 2.006186 0.632251
  H 2.190105 -0.067625 0.871678
  H 2.190750 0.068223 -0.870889
  H -1.184082 -2.006715 -0.631811
  H 0.965805 -1.761757 -1.086804
  H 1.184728 -2.006453 0.631548
  H -0.965217 -1.762253 1.086580
 18
 20.035385
  C -0.766326 -1.330274 0.072343
  C 0.766763 -1.330021 -0.072490
  C 1.538699 0.000250 0.000145
  C 0.766374 1.330341 0.072127
  C -0.766774 1.330088 -0.072212
  C -1.538680 -0.000232 -0.000026
  H -2.191882 -0.045648 -0.872693
  H -2.192129 0.044944 0.872462
  H -1.013756 1.811382 -1.019551
  H 1.159293 1.974715 -0.715601
  H 1.013198 1.811832 1.019405
  H -1.159890 1.974440 0.715438
  H 2.191708 -0.044992 0.872969
  H 2.192348 0.045642 -0.872190
  H -1.159457 -1.974975 -0.715019
  H 1.013459 -1.810901 -1.020116
  H 1.160093 -1.974732 0.714763
  H -1.012857 -1.811399 1.019895
 18
 20.954829
  C -0.769340 -1.333402 0.036585
  C 0.769779 -1.333153 -0.036729
  C 1.539646 0.000259 0.000147
  C 0.769374 1.333453 0.036366
  C -0.769776 1.333206 -0.036454
  C -1.539628 -0.000226 -0.000027
  H -2.192975 -0.023153 -0.873395
  H -2.193213 0.022480 0.873169
  H -1.057046 1.857120 -0.949069
  H 1.130087 1.939498 -0.795791
  H 1.056472 1.857580 0.948918
  H -1.130672 1.939241 0.795627
  H 2.192791 -0.022488 0.873674
  H 2.193435 0.023184 -0.872893
  H -1.130279 -1.939778 -0.795222
  H 1.056781 -1.856663 -0.949663
  H 1.130905 -1.939557 0.794976
  H -1.056161 -1.857161 0.949430
 18
 21.288258
  C -0.770730 -1.334983 0.000592
  C 0.771174 -1.334737 -0.000739
  C 1.539765 0.000267 0.000155
  C 0.770750 1.335028 0.000362
  C -0.771155 1.334783 -0.000452
  C -1.539745 -0.000222 -0.000027
  H -2.191725 -0.000673 -0.874566
  H -2.191987 0.000021 0.874310
  H -1.094796 1.898921 -0.875897
  H 1.095011 1.900016 -0.874317
  H 1.094206 1.899390 0.875735
  H -1.095583 1.899786 0.874152
  H 2.191525 0.000005 0.874852
  H 2.192221 0.000736 -0.874022
  H -1.095260 -1.900347 -0.873739
  H 1.094544 -1.898462 -0.876556
  H 1.095877 -1.900154 0.873493
  H -1.093910 -1.898965 0.876311
 18
 20.962723
  C -0.769382 -1.333439 -0.036005
  C 0.769824 -1.333200 0.035866
  C 1.539656 0.000272 0.000146
  C 0.769387 1.333469 -0.036228
  C -0.769788 1.333231 0.036136
  C -1.539639 -0.000218 -0.000028
  H -2.192989 0.022210 -0.873403
  H -2.193211 -0.022836 0.873174
  H -1.130482 1.939030 -0.796196
  H 1.056712 1.857601 -0.948703
  H 1.129886 1.939490 0.796026
  H -1.057267 1.857392 0.948545
  H 2.192790 0.022897 0.873683
  H 2.193447 -0.022118 -0.872902
  H -1.056976 -1.857935 -0.948181
  H 1.130287 -1.938626 -0.796834
  H 1.057577 -1.857758 0.947954
  H -1.129646 -1.939121 0.796599
 18
 20.048838
  C -0.766400 -1.330335 -0.071822
  C 0.766842 -1.330101 0.071681
  C 1.538714 0.000282 0.000145
  C 0.766389 1.330355 -0.072043
  C -0.766791 1.330121 0.071950
  C -1.538695 -0.000213 -0.000027
  H -2.191916 0.044738 -0.872703
  H -2.192138 -0.045338 0.872475
  H -1.159772 1.974302 -0.715903
  H 1.013401 1.811807 -1.019300
  H 1.159162 1.974762 0.715729
  H -1.013943 1.811621 1.019146
  H 2.191711 0.045437 0.872979
  H 2.192379 -0.044609 -0.872200
  H -1.013699 -1.812160 -1.018803
  H 1.159612 -1.973924 -0.716565
  H 1.014289 -1.812010 1.018586
  H -1.158959 -1.974417 0.716321
 18
 18.576240
  C -0.761443 -1.325144 -0.107453
  C 0.761884 -1.324921 0.107316
  C 1.537200 0.000291 0.000147
  C 0.761415 1.325161 -0.107679
  C -0.761819 1.324931 0.107584
  C -1.537178 -0.000205 -0.000025
  H -2.190321 0.067384 -0.871414
  H -2.190541 -0.067953 0.871182
  H -1.184487 2.006102 -0.632631
  H 0.965756 1.762636 -1.086104
  H 1.183864 2.006569 0.632452
  H -0.966283 1.762472 1.085947
  H 2.190107 0.068094 0.871695
  H 2.190797 -0.067218 -0.870907
  H -0.966092 -1.763013 -1.085640
  H 1.184361 -2.005754 -0.633325
  H 0.966664 -1.762888 1.085424
  H -1.183700 -2.006240 0.633079
 18
 16.616771
  C -0.754518 -1.317854 -0.143006
  C 0.754959 -1.317640 0.142872
  C 1.535161 0.000299 0.000145
  C 0.754477 1.317866 -0.143232
  C -0.754880 1.317643 0.143135
  C -1.535139 -0.000199 -0.000024
  H -2.188358 0.090262 -0.869460
  H -2.188574 -0.090804 0.869229
  H -1.204671 2.034364 -0.546259
  H 0.913974 1.710165 -1.148979
  H 1.204035 2.034821 0.546066
  H -0.914484 1.710032 1.148833
  H 2.188135 0.090982 0.869739
  H 2.188836 -0.090062 -0.868954
  H -0.914335 -1.710556 -1.148546
  H 1.204581 -2.034041 -0.546961
  H 0.914892 -1.710460 1.148338
  H -1.203906 -2.034519 0.546712
 18
 14.278951
  C -0.745795 -1.308654 -0.178236
  C 0.746235 -1.308449 0.178104
  C 1.532629 0.000309 0.000141
  C 0.745741 1.308659 -0.178459
  C -0.746143 1.308444 0.178360
  C -1.532604 -0.000191 -0.000022
  H -2.185695 0.113440 -0.867015
  H -2.185910 -0.113952 0.866790
  H -1.220240 2.058913 -0.457279
  H 0.858072 1.654110 -1.207664
  H 1.219591 2.059369 0.457081
  H -0.858566 1.654004 1.207523
  H 2.185469 0.114168 0.867286
  H 2.186178 -0.113203 -0.866514
  H -0.858456 -1.654511 -1.207272
  H 1.220179 -2.058625 -0.457989
  H 0.858997 -1.654445 1.207080
  H -1.219497 -2.059090 0.457736
 18
 11.685707
  C -0.735341 -1.297581 -0.213058
  C 0.735780 -1.297380 0.212929
  C 1.529704 0.000317 0.000137
  C 0.735278 1.297580 -0.213277
  C -0.735678 1.297374 0.213177
  C -1.529685 -0.000184 -0.000020
  H -2.182565 0.136889 -0.863964
  H -2.182775 -0.137375 0.863743
  H -1.231289 2.079738 -0.365669
  H 0.798542 1.594520 -1.261764
  H 1.230637 2.080183 0.365464
  H -0.799015 1.594442 1.261630
  H 2.182330 0.137627 0.864233
  H 2.183044 -0.136621 -0.863473
  H -0.798938 -1.594930 -1.261407
  H 1.231260 -2.079476 -0.366380
  H 0.799463 -1.594888 1.261227
  H -1.230566 -2.079934 0.366123
 18
 8.982826
  C -0.723344 -1.284808 -0.247218
  C 0.723779 -1.284616 0.247092
  C 1.526507 0.000327 0.000130
  C 0.723271 1.284805 -0.247430
  C -0.723669 1.284604 0.247330
  C -1.526488 -0.000177 -0.000019
  H -2.178938 0.160542 -0.860369
  H -2.179143 -0.161002 0.860150
  H -1.237881 2.096773 -0.271704
  H 0.735865 1.531198 -1.310833
  H 1.237222 2.097216 0.271499
  H -0.736319 1.531146 1.310705
  H 2.178697 0.161290 0.860629
  H 2.179422 -0.160241 -0.859896
  H -0.736270 -1.531610 -1.310515
  H 1.237881 -2.096550 -0.272416
  H 0.736775 -1.531596 1.310356
  H -1.237183 -2.096993 0.272158
 18
 6.330603
  C -0.710017 -1.270498 -0.280453
  C 0.710451 -1.270311 0.280333
  C 1.523211 0.000332 0.000123
  C 0.709937 1.270495 -0.280657
  C -0.710333 1.270308 0.280559
  C -1.523194 -0.000172 -0.000016
  H -2.174987 0.184178 -0.856251
  H -2.175184 -0.184621 0.856039
  H -1.240021 2.110033 -0.175649
  H 0.670844 1.464104 -1.354325
  H 1.239353 2.110456 0.175442
  H -0.671276 1.464079 1.354203
  H 2.174740 0.184932 0.856502
  H 2.175463 -0.183857 -0.855795
  H -0.671249 -1.464517 -1.354058
  H 1.240052 -2.109834 -0.176355
  H 0.671736 -1.464523 1.353907
  H -1.239342 -2.110264 0.176100
 18
 3.909294
  C -0.695690 -1.254904 -0.312361
  C 0.696119 -1.254726 0.312247
  C 1.520088 0.000341 0.000114
  C 0.695607 1.254905 -0.312555
  C -0.695998 1.254723 0.312459
  C -1.520068 -0.000168 -0.000014
  H -2.170975 0.207378 -0.851695
  H -2.171171 -0.207807 0.851494
  H -1.237663 2.119570 -0.078136
  H 0.604745 1.393508 -1.391592
  H 1.236992 2.119984 0.077934
  H -0.605155 1.393500 1.391471
  H 2.170729 0.208140 0.851927
  H 2.171447 -0.207035 -0.851257
  H -0.605140 -1.393917 -1.391364
  H 1.237712 -2.119397 -0.078828
  H 0.605607 -1.393940 1.391225
  H -1.237003 -2.119817 0.078580
 18
 1.902599
  C -0.680755 -1.238300 -0.342559
  C 0.681181 -1.238128 0.342452
  C 1.517465 0.000345 0.000103
  C 0.680670 1.238309 -0.342743
  C -0.681058 1.238128 0.342647
  C -1.517448 -0.000163 -0.000013
  H -2.167224 0.229608 -0.846876
  H -2.167413 -0.230024 0.846682
  H -1.230710 2.125603 0.020365
  H 0.538926 1.319545 -1.422121
  H 1.230033 2.126009 -0.020566
  H -0.539314 1.319547 1.422011
  H 2.166986 0.230375 0.847095
  H 2.167685 -0.229255 -0.846465
  H -0.539305 -1.319940 -1.421941
  H 1.230786 -2.125460 0.019693
  H 0.539751 -1.319979 1.421819
  H -1.230071 -2.125862 -0.019932
 18
 0.523837
  C -0.666204 -1.221626 -0.369727
  C 0.666627 -1.221458 0.369626
  C 1.515926 0.000357 0.000102
  C 0.666111 1.221639 -0.369901
  C -0.666502 1.221467 0.369810
  C -1.515911 -0.000161 -0.000004
  H -2.163897 0.249531 -0.842554
  H -2.164120 -0.249919 0.842346
  H -1.219368 2.128905 0.117824
  H 0.476174 1.242794 -1.444762
  H 1.218676 2.129290 -0.118025
  H -0.476527 1.242813 1.444661
  H 2.163681 0.250305 0.842753
  H 2.164365 -0.249159 -0.842151
  H -0.476531 -1.243199 -1.444623
  H 1.219460 -2.128778 0.117134
  H 0.476964 -1.243248 1.444520
  H -1.218739 -2.129168 -0.117378
 18
 0.000000
  C -0.651624 -1.204111 -0.395237
  C 0.652007 -1.203926 0.395073
  C 1.515798 0.000401 0.000190
  C 0.651482 1.204141 -0.395376
  C -0.651911 1.203968 0.395273
  C -1.515769 -0.000203 0.000109
  H -2.162314 0.267215 -0.838063
  H -2.162735 -0.267542 0.837970
  H -1.203018 2.129022 0.216214
  H 0.416708 1.164237 -1.460758
  H 1.202249 2.129421 -0.216549
  H -0.416950 1.164342 1.460668
  H 2.162249 0.268050 0.838420
  H 2.162912 -0.266878 -0.837677
  H -0.416977 -1.164760 -1.460736
  H 1.202989 -2.128914 0.215384
  H 0.417428 -1.164787 1.460546
  H -1.202340 -2.129320 -0.215802
