 18
 0.000000
  C 0.708505 1.339927 -0.000268
  C -0.759917 1.138991 -0.395213
  C -1.369026 -0.013409 0.395296
  C -0.708461 -1.339972 -0.000252
  C 0.759934 -1.138919 -0.395126
  C 1.369000 0.013428 0.395537
  H 2.444450 0.067941 0.216837
  H 1.223888 -0.175527 1.460895
  H 1.320354 -2.058284 -0.215892
  H 0.834910 -0.912829 -1.460484
  H -1.247062 -1.786515 -0.838475
  H -0.774492 -2.036997 0.837574
  H -1.224143 0.175655 1.460660
  H -2.444433 -0.067926 0.216395
  H -0.835029 0.913040 -1.460572
  H -1.320264 2.058363 -0.215833
  H 0.774729 2.037095 0.837420
  H 1.247207 1.786261 -0.838572
 18
 0.036847
  C 0.707166 1.340274 0.016412
  C -0.754729 1.140744 -0.399073
  C -1.379802 -0.010074 0.380973
  C -0.707119 -1.340272 0.016444
  C 0.754778 -1.140687 -0.399006
  C 1.379768 0.010094 0.381150
  H 2.449065 0.068596 0.169639
  H 1.267732 -0.187611 1.449016
  H 1.314805 -2.061185 -0.223557
  H 0.816350 -0.918553 -1.466040
  H -1.249475 -1.817494 -0.802181
  H -0.755905 -2.012902 0.875056
  H -1.267991 0.187690 1.448852
  H -2.449059 -0.068596 0.169259
  H -0.816337 0.918719 -1.466129
  H -1.314730 2.061241 -0.223529
  H 0.756030 2.013042 0.874912
  H 1.249593 1.817321 -0.802267
 18
 0.129070
  C 0.705694 1.340186 0.033396
  C -0.749292 1.141977 -0.403297
  C -1.390013 -0.006914 0.366757
  C -0.705652 -1.340169 0.033421
  C 0.749341 -1.141927 -0.403230
  C 1.389982 0.006940 0.366919
  H 2.452350 0.069565 0.123835
  H 1.310452 -0.199853 1.436031
  H 1.309236 -2.063530 -0.232458
  H 0.796852 -0.923249 -1.471638
  H -1.251364 -1.847901 -0.764342
  H -0.736783 -1.987652 0.911946
  H -1.310690 0.199926 1.435873
  H -2.452334 -0.069561 0.123490
  H -0.796809 0.923386 -1.471723
  H -1.309176 2.063576 -0.232461
  H 0.736868 1.987789 0.911826
  H 1.251476 1.847774 -0.764412
 18
 0.262069
  C 0.704071 1.339620 0.050512
  C -0.744040 1.143459 -0.406780
  C -1.400373 -0.004129 0.352011
  C -0.704036 -1.339597 0.050531
  C 0.744088 -1.143410 -0.406709
  C 1.400347 0.004159 0.352162
  H 2.454618 0.071532 0.077118
  H 1.354246 -0.211266 1.421561
  H 1.303791 -2.065980 -0.239875
  H 0.777486 -0.929042 -1.476479
  H -1.252273 -1.876968 -0.725790
  H -0.718184 -1.961237 0.947935
  H -1.354457 0.211340 1.421411
  H -2.454601 -0.071522 0.076801
  H -0.777426 0.929156 -1.476565
  H -1.303737 2.066024 -0.239906
  H 0.718238 1.961366 0.947842
  H 1.252377 1.876875 -0.725843
 18
 0.427346
  C 0.702345 1.338585 0.067605
  C -0.739178 1.145561 -0.409051
  C -1.411011 -0.001792 0.336497
  C -0.702317 -1.338556 0.067615
  C 0.739225 -1.145516 -0.408978
  C 1.410991 0.001827 0.336642
  H 2.455743 0.074790 0.028671
  H 1.399746 -0.221338 1.405415
  H 1.298558 -2.068828 -0.244513
  H 0.758832 -0.936932 -1.480231
  H -1.252210 -1.904308 -0.687049
  H -0.700711 -1.933751 0.982852
  H -1.399931 0.221414 1.405264
  H -2.455722 -0.074774 0.028381
  H -0.758760 0.937024 -1.480315
  H -1.298512 2.068870 -0.244566
  H 0.700739 1.933873 0.982782
  H 1.252307 1.904245 -0.687082
 18
 0.596577
  C 0.700419 1.337048 0.084888
  C -0.734158 1.147298 -0.411585
  C -1.420972 0.000350 0.321053
  C -0.700398 -1.337013 0.084892
  C 0.734204 -1.147255 -0.411509
  C 1.420954 -0.000312 0.321189
  H 2.455428 0.078476 -0.018434
  H 1.443800 -0.231279 1.388115
  H 1.293397 -2.071290 -0.250114
  H 0.739546 -0.943996 -1.483921
  H -1.251756 -1.930673 -0.646899
  H -0.682784 -1.904992 1.017072
  H -1.443960 0.231354 1.387965
  H -2.455405 -0.078454 -0.018693
  H -0.739461 0.944068 -1.484003
  H -1.293356 2.071332 -0.250191
  H 0.682788 1.905105 1.017024
  H 1.251845 1.930636 -0.646911
 18
 0.741749
  C 0.698151 1.334921 0.102608
  C -0.728483 1.147870 -0.415555
  C -1.429676 0.002510 0.306283
  C -0.698136 -1.334880 0.102603
  C 0.728529 -1.147829 -0.415477
  C 1.429660 -0.002467 0.306409
  H 2.453806 0.081920 -0.062049
  H 1.484310 -0.242164 1.370209
  H 1.288015 -2.072793 -0.259706
  H 0.718470 -0.947929 -1.488374
  H -1.251119 -1.956675 -0.604168
  H -0.662985 -1.874651 1.050903
  H -1.484446 0.242241 1.370070
  H -2.453775 -0.081891 -0.062279
  H -0.718370 0.947981 -1.488450
  H -1.287979 2.072832 -0.259807
  H 0.662961 1.874749 1.050877
  H 1.251198 1.956665 -0.604159
 18
 0.888797
  C 0.695814 1.332280 0.120180
  C -0.723371 1.149427 -0.417945
  C -1.438700 0.004161 0.290499
  C -0.695805 -1.332239 0.120166
  C 0.723417 -1.149389 -0.417865
  C 1.438692 -0.004113 0.290618
  H 2.450814 0.086977 -0.108225
  H 1.527086 -0.251202 1.350427
  H 1.282905 -2.074987 -0.265343
  H 0.698662 -0.954926 -1.491471
  H -1.249654 -1.980617 -0.561583
  H -0.644783 -1.843173 1.083590
  H -1.527191 0.251282 1.350296
  H -2.450793 -0.086940 -0.108431
  H -0.698551 0.954959 -1.491547
  H -1.282869 2.075026 -0.265463
  H 0.644735 1.843257 1.083584
  H 1.249723 1.980629 -0.561551
 18
 1.022430
  C 0.693376 1.329102 0.137652
  C -0.718484 1.151345 -0.419641
  C -1.447435 0.005474 0.274313
  C -0.693374 -1.329054 0.137628
  C 0.718529 -1.151313 -0.419559
  C 1.447431 -0.005424 0.274424
  H 2.446337 0.093044 -0.154843
  H 1.570009 -0.259121 1.329236
  H 1.277947 -2.077395 -0.269318
  H 0.679362 -0.963128 -1.493825
  H -1.247721 -2.002793 -0.518633
  H -0.627329 -1.810594 1.115166
  H -1.570089 0.259200 1.329106
  H -2.446309 -0.093000 -0.155019
  H -0.679241 0.963143 -1.493897
  H -1.277919 2.077433 -0.269456
  H 0.627259 1.810663 1.115172
  H 1.247780 2.002827 -0.518573
 18
 1.136873
  C 0.690862 1.325387 0.154988
  C -0.713813 1.153630 -0.420687
  C -1.455799 0.006473 0.257769
  C -0.690866 -1.325338 0.154957
  C 0.713860 -1.153597 -0.420602
  C 1.455799 -0.006420 0.257872
  H 2.440275 0.100075 -0.201742
  H 1.612892 -0.265911 1.306662
  H 1.273153 -2.080013 -0.271701
  H 0.660592 -0.972483 -1.495460
  H -1.245448 -2.023191 -0.475371
  H -0.610641 -1.776970 1.145618
  H -1.612945 0.265992 1.306545
  H -2.440253 -0.100024 -0.201892
  H -0.660460 0.972484 -1.495538
  H -1.273124 2.080053 -0.271856
  H 0.610550 1.777020 1.145640
  H 1.245497 2.023237 -0.475283
 18
 1.237461
  C 0.688464 1.321229 0.171877
  C -0.709769 1.156975 -0.420166
  C -1.464040 0.007037 0.240473
  C -0.688474 -1.321181 0.171838
  C 0.709818 -1.156943 -0.420080
  C 1.464043 -0.006980 0.240568
  H 2.432235 0.108536 -0.250346
  H 1.656963 -0.270620 1.282307
  H 1.268788 -2.083352 -0.270007
  H 0.643448 -0.984881 -1.495751
  H -1.243020 -2.041247 -0.432972
  H -0.596011 -1.742702 1.174627
  H -1.656991 0.270706 1.282197
  H -2.432223 -0.108476 -0.250469
  H -0.643307 0.984868 -1.495826
  H -1.268755 2.083385 -0.270179
  H 0.595902 1.742731 1.174666
  H 1.243062 2.041310 -0.432861
 18
 1.291401
  C 0.685773 1.316393 0.189034
  C -0.705276 1.159536 -0.420548
  C -1.471294 0.007547 0.223599
  C -0.685789 -1.316347 0.188985
  C 0.705326 -1.159507 -0.420459
  C 1.471299 -0.007489 0.223687
  H 2.422969 0.117036 -0.296467
  H 1.698465 -0.275687 1.257303
  H 1.264183 -2.086071 -0.270865
  H 0.625157 -0.995237 -1.496407
  H -1.240341 -2.058392 -0.388613
  H -0.580158 -1.706910 1.202957
  H -1.698470 0.275776 1.257206
  H -2.422958 -0.116968 -0.296563
  H -0.625006 0.995207 -1.496481
  H -1.264153 2.086108 -0.271053
  H 0.580030 1.706918 1.203010
  H 1.240378 2.058466 -0.388474
 18
 1.311663
  C 0.683169 1.311069 0.205844
  C -0.701145 1.162730 -0.419941
  C -1.478164 0.007754 0.206299
  C -0.683191 -1.311024 0.205787
  C 0.701197 -1.162706 -0.419850
  C 1.478175 -0.007694 0.206379
  H 2.411840 0.126523 -0.343165
  H 1.740116 -0.279235 1.230845
  H 1.259824 -2.089216 -0.269192
  H 0.607894 -1.007422 -1.496110
  H -1.237647 -2.073491 -0.344636
  H -0.565703 -1.670392 1.229960
  H -1.740093 0.279327 1.230756
  H -2.411838 -0.126446 -0.343237
  H -0.607734 1.007375 -1.496181
  H -1.259793 2.089246 -0.269395
  H 0.565558 1.670376 1.230024
  H 1.237677 2.073578 -0.344470
 18
 1.292198
  C 0.680115 1.304829 0.223352
  C -0.696330 1.164929 -0.420557
  C -1.484177 0.007950 0.189269
  C -0.680141 -1.304790 0.223286
  C 0.696384 -1.164909 -0.420464
  C 1.484191 -0.007889 0.189341
  H 2.399607 0.136063 -0.387779
  H 1.779724 -0.283549 1.203489
  H 1.254946 -2.091648 -0.270840
  H 0.588846 -1.017172 -1.496422
  H -1.234429 -2.087960 -0.297435
  H -0.549240 -1.631474 1.256744
  H -1.779680 0.283648 1.203421
  H -2.399613 -0.135976 -0.387828
  H -0.588674 1.017106 -1.496494
  H -1.254913 2.091676 -0.271058
  H 0.549077 1.631434 1.256824
  H 1.234452 2.088051 -0.297240
 18
 1.238735
  C 0.677143 1.298177 0.240262
  C -0.691979 1.167696 -0.420257
  C -1.489667 0.007819 0.172165
  C -0.677177 -1.298151 0.240187
  C 0.692030 -1.167663 -0.420145
  C 1.489704 -0.007774 0.172213
  H 2.385660 0.146478 -0.432208
  H 1.818913 -0.286241 1.175134
  H 1.250364 -2.094448 -0.269966
  H 0.571117 -1.028539 -1.495817
  H -1.231210 -2.100179 -0.251281
  H -0.534297 -1.592380 1.281803
  H -1.818849 0.286386 1.175070
  H -2.385645 -0.146338 -0.432257
  H -0.570934 1.028431 -1.495889
  H -1.250360 2.094450 -0.270152
  H 0.534114 1.592311 1.281880
  H 1.231222 2.100263 -0.251059
 18
 1.139220
  C 0.673712 1.290629 0.257546
  C -0.687156 1.169647 -0.421146
  C -1.494212 0.007644 0.155613
  C -0.673759 -1.290682 0.257481
  C 0.687194 -1.169552 -0.420949
  C 1.494322 -0.007673 0.155590
  H 2.370673 0.157060 -0.474436
  H 1.856355 -0.289340 1.146199
  H 1.245154 -2.096734 -0.271588
  H 0.552042 -1.037932 -1.495754
  H -1.227352 -2.111330 -0.202757
  H -0.517743 -1.551275 1.306154
  H -1.856268 0.289710 1.146084
  H -2.370540 -0.156690 -0.474584
  H -0.551838 1.037684 -1.495853
  H -1.245298 2.096613 -0.271498
  H 0.517512 1.551162 1.306199
  H 1.227354 2.111344 -0.202551
 18
 1.004433
  C 0.670103 1.282363 0.274770
  C -0.682216 1.171398 -0.422349
  C -1.498067 0.007354 0.139175
  C -0.670136 -1.282514 0.274788
  C 0.682255 -1.171249 -0.421995
  C 1.498238 -0.007495 0.139175
  H 2.354611 0.168144 -0.515149
  H 1.892765 -0.291958 1.116480
  H 1.239574 -2.099047 -0.273965
  H 0.532478 -1.046591 -1.495551
  H -1.223142 -2.120890 -0.153044
  H -0.500637 -1.508498 1.329375
  H -1.892521 0.292656 1.116246
  H -2.354334 -0.167554 -0.515518
  H -0.532251 1.046225 -1.495740
  H -1.239929 2.098687 -0.273248
  H 0.500253 1.508409 1.329281
  H 1.223111 2.120841 -0.152927
 18
 0.862925
  C 0.667098 1.273830 0.291238
  C -0.677843 1.174351 -0.421764
  C -1.501644 0.006864 0.121788
  C -0.667061 -1.274045 0.291417
  C 0.677931 -1.174193 -0.421135
  C 1.501750 -0.007122 0.122279
  H 2.336726 0.179878 -0.556365
  H 1.929820 -0.292369 1.085208
  H 1.234376 -2.102340 -0.272373
  H 0.514761 -1.058201 -1.493694
  H -1.219342 -2.128009 -0.105325
  H -0.486085 -1.465912 1.350834
  H -1.928935 0.293131 1.084735
  H -2.336472 -0.179528 -0.557124
  H -0.514517 1.058265 -1.494175
  H -1.234793 2.101752 -0.270967
  H 0.485217 1.465855 1.350496
  H 1.219168 2.128070 -0.105205
 18
 0.709031
  C 0.664897 1.264522 0.307182
  C -0.672881 1.177796 -0.420532
  C -1.505238 0.007026 0.102989
  C -0.664912 -1.264401 0.308179
  C 0.673283 -1.178151 -0.418400
  C 1.505015 -0.007128 0.105123
  H 2.317967 0.190604 -0.596810
  H 1.964864 -0.292297 1.053559
  H 1.228846 -2.106514 -0.268811
  H 0.497759 -1.071244 -1.490134
  H -1.216904 -2.132485 -0.056971
  H -0.473753 -1.421833 1.371427
  H -1.963834 0.293441 1.051713
  H -2.317746 -0.191620 -0.598788
  H -0.496726 1.070978 -1.492105
  H -1.228775 2.105849 -0.269950
  H 0.471657 1.422945 1.370024
  H 1.216605 2.132774 -0.057810
 18
 0.572067
  C 0.662820 1.256537 0.322019
  C -0.670872 1.183418 -0.414062
  C -1.508453 0.005012 0.084496
  C -0.662514 -1.256357 0.322530
  C 0.671061 -1.183565 -0.413460
  C 1.508102 -0.005070 0.085952
  H 2.294211 0.205176 -0.642352
  H 2.002746 -0.286994 1.017745
  H 1.226672 -2.110626 -0.256994
  H 0.486064 -1.090467 -1.485124
  H -1.214004 -2.135705 -0.015458
  H -0.465108 -1.382965 1.388787
  H -2.000591 0.286621 1.017766
  H -2.294862 -0.206255 -0.642774
  H -0.485911 1.091595 -1.485840
  H -1.226484 2.110272 -0.256095
  H 0.463961 1.383059 1.388151
  H 1.213313 2.136599 -0.015368
 18
 0.417915
  C 0.659973 1.246939 0.336912
  C -0.667599 1.187673 -0.410261
  C -1.511291 0.003816 0.067817
  C -0.659913 -1.246839 0.336969
  C 0.667720 -1.187711 -0.410022
  C 1.511195 -0.003753 0.068268
  H 2.269931 0.218377 -0.684827
  H 2.036358 -0.283738 0.983634
  H 1.223037 -2.113832 -0.247652
  H 0.473160 -1.106261 -1.480967
  H -1.211691 -2.137171 0.029506
  H -0.455809 -1.340903 1.405420
  H -2.035595 0.283729 0.983714
  H -2.270231 -0.218558 -0.684874
  H -0.472906 1.106432 -1.481202
  H -1.222939 2.113758 -0.247655
  H 0.455304 1.340787 1.405319
  H 1.211448 2.137551 0.029847
 18
 0.262784
  C 0.657227 1.236685 0.351956
  C -0.663917 1.191546 -0.407042
  C -1.513295 0.002683 0.050869
  C -0.657279 -1.236657 0.351839
  C 0.664007 -1.191529 -0.406918
  C 1.513302 -0.002565 0.050918
  H 2.245009 0.231382 -0.724908
  H 2.069184 -0.280349 0.948590
  H 1.218663 -2.117202 -0.240370
  H 0.458976 -1.120669 -1.476691
  H -1.208874 -2.137457 0.076200
  H -0.445245 -1.297105 1.421196
  H -2.068921 0.280531 0.948680
  H -2.245170 -0.231204 -0.724802
  H -0.458701 1.120501 -1.476766
  H -1.218582 2.117256 -0.240722
  H 0.444947 1.296871 1.421287
  H 1.208817 2.137592 0.076650
 18
 0.130457
  C 0.654872 1.226244 0.366682
  C -0.660203 1.195576 -0.403434
  C -1.514598 0.001510 0.033736
  C -0.654939 -1.226221 0.366540
  C 0.660294 -1.195552 -0.403319
  C 1.514614 -0.001374 0.033736
  H 2.218726 0.244211 -0.763725
  H 2.101386 -0.276107 0.912498
  H 1.214022 -2.120885 -0.232587
  H 0.444982 -1.135343 -1.471770
  H -1.206150 -2.136366 0.122745
  H -0.435104 -1.253135 1.435673
  H -2.101159 0.276325 0.912613
  H -2.218891 -0.243980 -0.763587
  H -0.444689 1.135117 -1.471827
  H -1.213933 2.120965 -0.233002
  H 0.434816 1.252866 1.435774
  H 1.206102 2.136473 0.123243
 18
 0.037612
  C 0.652889 1.215749 0.380912
  C -0.656562 1.199778 -0.399234
  C -1.515392 0.000263 0.016794
  C -0.652961 -1.215720 0.380760
  C 0.656660 -1.199753 -0.399118
  C 1.515402 -0.000109 0.016776
  H 2.190974 0.256753 -0.801552
  H 2.132664 -0.270980 0.875633
  H 1.209349 -2.124691 -0.223736
  H 0.431728 -1.150347 -1.466196
  H -1.203743 -2.133949 0.168521
  H -0.425962 -1.209665 1.448662
  H -2.132427 0.271225 0.875784
  H -2.191172 -0.256504 -0.801391
  H -0.431410 1.150083 -1.466253
  H -1.209246 2.124784 -0.224193
  H 0.425658 1.209371 1.448767
  H 1.203693 2.134054 0.169072
 18
 0.000006
  C 0.650842 1.204621 0.395315
  C -0.652547 1.203536 -0.395286
  C -1.515765 -0.001053 0.000040
  C -0.650933 -1.204561 0.395141
  C 0.652649 -1.203532 -0.395188
  C 1.515740 0.001235 -0.000014
  H 2.162244 0.269195 -0.838057
  H 2.162807 -0.265704 0.837935
  H 1.204176 -2.128306 -0.215924
  H 0.417906 -1.164283 -1.460604
  H -1.201064 -2.130116 0.215717
  H -0.416251 -1.165077 1.460552
  H -2.162555 0.265970 0.838078
  H -2.162421 -0.268922 -0.837759
  H -0.417550 1.163920 -1.460598
  H -1.204042 2.128375 -0.216450
  H 0.415891 1.164780 1.460651
  H 1.201021 2.130246 0.216380
