 18
 0.000000
  C 0.995211 1.050753 -0.241642
  C -0.412426 1.387330 0.241649
  C -1.407628 0.336487 -0.241621
  C -0.995264 -1.050812 0.241659
  C 0.412385 -1.387253 -0.241639
  C 1.407724 -0.336509 0.241631
  H 2.408982 -0.575805 -0.123500
  H 1.439317 -0.343988 1.333835
  H 0.705748 -2.374022 0.123436
  H 0.421496 -1.418322 -1.333855
  H -1.703125 -1.798261 -0.123579
  H -1.017772 -1.074553 1.333864
  H -2.408949 0.575833 0.123292
  H -1.439138 0.344072 -1.333920
  H -0.705773 2.374109 -0.123486
  H -0.421573 1.418517 1.333853
  H 1.703143 1.798135 0.123434
  H 1.017621 1.074342 -1.333802
 18
 0.224664
  C 0.828512 1.188148 -0.250198
  C -0.612207 1.317409 0.232400
  C -1.450341 0.123819 -0.217392
  C -0.824610 -1.199550 0.217258
  C 0.629787 -1.309101 -0.232386
  C 1.444023 -0.113518 0.250209
  H 2.473613 -0.198795 -0.104601
  H 1.465808 -0.107461 1.342729
  H 1.063984 -2.231811 0.159520
  H 0.669375 -1.358534 -1.323288
  H -1.397934 -2.026122 -0.209183
  H -0.875792 -1.285377 1.305393
  H -2.453063 0.205160 0.208864
  H -1.548954 0.138774 -1.305547
  H -1.049882 2.238523 -0.159404
  H -0.625274 1.379266 1.323310
  H 1.415886 2.038030 0.104643
  H 0.847047 1.201192 -1.342719
 18
 0.844420
  C 0.715021 1.260178 -0.259319
  C -0.731153 1.262182 0.221721
  C -1.463951 -0.011882 -0.192399
  C -0.705968 -1.282648 0.191996
  C 0.763393 -1.243044 -0.221714
  C 1.448555 0.030421 0.259605
  H 2.485254 0.043566 -0.084496
  H 1.458002 0.047376 1.352222
  H 1.276298 -2.112192 0.196948
  H 0.836874 -1.305562 -1.310231
  H -1.185465 -2.136217 -0.293348
  H -0.774978 -1.434474 1.271905
  H -2.443007 -0.028377 0.292608
  H -1.629969 -0.000291 -1.272361
  H -1.252219 2.126499 -0.196857
  H -0.751444 1.356331 1.310252
  H 1.219026 2.166126 0.085014
  H 0.734664 1.260611 -1.351931
 18
 1.770849
  C 0.628847 1.304766 -0.269139
  C -0.814410 1.217310 0.210648
  C -1.467789 -0.111447 -0.166796
  C -0.614105 -1.338025 0.165982
  C 0.859056 -1.186507 -0.210611
  C 1.441927 0.136479 0.269816
  H 2.479151 0.221778 -0.062271
  H 1.436551 0.162639 1.362278
  H 1.422378 -2.010705 0.233536
  H 0.967815 -1.257317 -1.295686
  H -1.021616 -2.195070 -0.375765
  H -0.693606 -1.556807 1.233545
  H -2.413328 -0.196241 0.374362
  H -1.699934 -0.109628 -1.234498
  H -1.391574 2.031931 -0.233382
  H -0.843488 1.343431 1.295759
  H 1.068810 2.247750 0.063445
  H 0.651995 1.291009 -1.361599
 18
 2.929459
  C 0.554123 1.337243 -0.278417
  C -0.883102 1.176056 0.198749
  C -1.466798 -0.196198 -0.140597
  C -0.533696 -1.380621 0.139349
  C 0.937295 -1.133879 -0.198681
  C 1.429799 0.225564 0.279504
  H 2.463558 0.371676 -0.042181
  H 1.410606 0.259701 1.371595
  H 1.537656 -1.916857 0.270758
  H 1.082136 -1.209702 -1.279225
  H -0.879796 -2.228675 -0.456267
  H -0.617305 -1.665555 1.190783
  H -2.372773 -0.334716 0.454175
  H -1.762504 -0.210173 -1.192280
  H -1.503666 1.943213 -0.270552
  H -0.923611 1.333879 1.279376
  H 0.937737 2.307980 0.044043
  H 0.583548 1.311201 -1.370505
 18
 4.233184
  C 0.485927 1.361859 -0.287777
  C -0.943135 1.136138 0.186519
  C -1.461942 -0.272420 -0.113940
  C -0.459756 -1.414706 0.112283
  C 1.004581 -1.083026 -0.186412
  C 1.413566 0.304280 0.289248
  H 2.441457 0.504502 -0.022037
  H 1.379913 0.345347 1.380736
  H 1.633637 -1.827543 0.307272
  H 1.185483 -1.160144 -1.261437
  H -0.751847 -2.245014 -0.534611
  H -0.541909 -1.764509 1.143913
  H -2.323837 -0.454744 0.531896
  H -1.818381 -0.307508 -1.145981
  H -1.599240 1.857041 -0.307007
  H -0.996950 1.324510 1.261679
  H 0.817694 2.354799 0.024550
  H 0.523200 1.324006 -1.379262
 18
 5.597080
  C 0.421978 1.380615 -0.297413
  C -0.997257 1.096451 0.174131
  C -1.453565 -0.342986 -0.086914
  C -0.390033 -1.442179 0.084889
  C 1.063908 -1.033035 -0.173984
  C 1.393918 0.375693 0.299225
  H 2.414187 0.625499 -0.001210
  H 1.344788 0.422613 1.389841
  H 1.715744 -1.741362 0.342698
  H 1.280435 -1.107895 -1.242555
  H -0.634159 -2.247895 -0.610698
  H -0.465863 -1.855324 1.093114
  H -2.267688 -0.561353 0.607443
  H -1.867761 -0.404066 -1.095721
  H -1.683358 1.771774 -0.342376
  H -1.065963 1.314031 1.242899
  H 0.704778 2.391855 0.004298
  H 0.468342 1.331058 -1.388036
 18
 6.944699
  C 0.360983 1.394696 -0.307228
  C -1.047061 1.056316 0.161566
  C -1.441846 -0.409483 -0.059540
  C -0.323388 -1.464121 0.057201
  C 1.116954 -0.983515 -0.161382
  C 1.371325 0.441480 0.309325
  H 2.382421 0.737618 0.020095
  H 1.305890 0.493126 1.398808
  H 1.787023 -1.657543 0.377176
  H 1.368229 -1.052943 -1.222661
  H -0.524946 -2.239510 -0.684509
  H -0.388588 -1.938436 1.038656
  H -2.205014 -0.657319 0.680822
  H -1.910210 -0.501105 -1.041751
  H -1.758801 1.686343 -0.376809
  H -1.132211 1.301547 1.223108
  H 0.596786 2.421123 -0.016525
  H 0.417575 1.333714 -1.396726
 18
 8.214458
  C 0.302047 1.405081 -0.316643
  C -1.093724 1.015229 0.148692
  C -1.426931 -0.472930 -0.031971
  C -0.259217 -1.481283 0.029374
  C 1.164745 -0.934453 -0.148475
  C 1.346357 0.502638 0.318962
  H 2.346568 0.842649 0.040282
  H 1.264950 0.557960 1.407136
  H 1.849139 -1.575615 0.411506
  H 1.449533 -0.996220 -1.201683
  H -0.423399 -2.221454 -0.755777
  H -0.310025 -2.013482 0.981291
  H -2.136361 -0.744492 0.751764
  H -1.944714 -0.599244 -0.984815
  H -1.827209 1.599770 -0.411094
  H -1.197430 1.286247 1.202239
  H 0.492282 2.443792 -0.036332
  H 0.369885 1.334096 -1.404839
 18
 9.340720
  C 0.244624 1.412083 -0.325962
  C -1.137683 0.972839 0.135641
  C -1.408646 -0.533813 -0.004266
  C -0.196980 -1.493924 0.001477
  C 1.208058 -0.885497 -0.135395
  C 1.319050 0.559955 0.328439
  H 2.306921 0.941917 0.060289
  H 1.221400 0.617820 1.415092
  H 1.903479 -1.495240 0.445423
  H 1.525214 -0.937494 -1.179763
  H -0.328843 -2.194685 -0.824468
  H -0.230088 -2.081036 0.921066
  H -2.061889 -0.823830 0.820245
  H -1.971339 -0.698615 -0.924955
  H -1.889645 1.511519 -0.444984
  H -1.261870 1.267829 1.180424
  H 0.390305 2.460719 -0.056064
  H 0.324532 1.331887 -1.412638
 18
 10.269860
  C 0.188326 1.415947 -0.335301
  C -1.179287 0.928862 0.122411
  C -1.386905 -0.592434 0.023484
  C -0.136377 -1.502260 -0.026398
  C 1.247402 -0.836471 -0.122138
  C 1.289448 0.613960 0.337875
  H 2.263629 1.036356 0.080491
  H 1.175083 0.673169 1.422756
  H 1.950970 -1.416221 0.479000
  H 1.595835 -0.876814 -1.156920
  H -0.240890 -2.160023 -0.890444
  H -0.148817 -2.141263 0.858189
  H -1.981825 -0.895902 0.886114
  H -1.989837 -0.799175 -0.862355
  H -1.946785 1.421094 -0.478530
  H -1.325882 1.245983 1.157669
  H 0.290167 2.472427 -0.076102
  H 0.281076 1.327097 -1.420218
 18
 10.952762
  C 0.132972 1.416624 -0.345129
  C -1.218651 0.883095 0.108879
  C -1.361579 -0.648887 0.051149
  C -0.077218 -1.506357 -0.054106
  C 1.283131 -0.787152 -0.108585
  C 1.257351 0.665021 0.347722
  H 2.216667 1.126637 0.102134
  H 1.125022 0.724225 1.430460
  H 1.992405 -1.338399 0.512160
  H 1.661848 -0.813821 -1.133011
  H -0.159120 -2.118190 -0.953468
  H -0.066340 -2.194374 0.792737
  H -1.896535 -0.960804 0.949160
  H -2.000083 -0.900798 -0.797072
  H -1.999066 1.328233 -0.511675
  H -1.389320 1.220624 1.133841
  H 0.191404 2.479195 -0.097713
  H 0.239523 1.318891 -1.427923
 18
 11.403783
  C 0.077920 1.415245 -0.353799
  C -1.256721 0.834961 0.093949
  C -1.333238 -0.703757 0.077837
  C -0.019609 -1.507100 -0.080705
  C 1.315496 -0.738241 -0.093648
  C 1.223793 0.713538 0.356276
  H 2.166280 1.213064 0.120009
  H 1.075761 0.772640 1.436960
  H 2.026657 -1.261524 0.548585
  H 1.724323 -0.752091 -1.106560
  H -0.083521 -2.071033 -1.012094
  H 0.016591 -2.238954 0.727612
  H -1.807361 -1.019334 1.008003
  H -2.000275 -1.003180 -0.731919
  H -2.045956 1.231109 -0.548087
  H -1.455964 1.190621 1.107421
  H 0.093173 2.481429 -0.115786
  H 0.198974 1.312130 -1.434530
 18
 11.537736
  C -1.191507 -0.762284 0.358869
  C -1.346644 0.684962 -0.089387
  C -0.039220 1.500982 -0.109516
  C 1.297732 0.754840 0.112461
  C 1.290264 -0.786289 0.088988
  C -0.022331 -1.413712 -0.361549
  H 0.004694 -2.481769 -0.133266
  H -0.151686 -1.305786 -1.440747
  H 2.090823 -1.133336 -0.567210
  H 1.512490 -1.156704 1.092225
  H 1.703384 1.070588 1.074438
  H 1.994191 1.103693 -0.651398
  H 0.017500 2.014129 -1.070304
  H -0.109174 2.275181 0.655960
  H -2.063477 1.182683 0.566630
  H -1.777117 0.681155 -1.093261
  H -2.114300 -1.299941 0.128745
  H -1.032799 -0.817500 1.438138
 18
 11.372973
  C -1.152396 -0.808343 0.370483
  C -1.374793 0.629744 -0.080191
  C -0.096599 1.489026 -0.140812
  C 1.258028 0.802434 0.143812
  C 1.321573 -0.736300 0.079764
  C 0.030921 -1.406925 -0.373207
  H 0.101166 -2.476839 -0.163572
  H -0.113722 -1.285783 -1.448811
  H 2.131385 -1.034794 -0.588862
  H 1.567179 -1.121096 1.072073
  H 1.595529 1.112276 1.133927
  H 1.978710 1.205097 -0.569772
  H -0.045343 1.946712 -1.129815
  H -0.199153 2.306629 0.574550
  H -2.095531 1.104783 0.588267
  H -1.828906 0.601854 -1.073193
  H -2.056354 -1.384282 0.158973
  H -0.970172 -0.855189 1.446178
 18
 11.005402
  C -1.113512 -0.853091 0.377723
  C -1.400447 0.574668 -0.070971
  C -0.153073 1.474685 -0.170483
  C 1.215121 0.849607 0.173481
  C 1.352409 -0.682206 0.070533
  C 0.086006 -1.399856 -0.380429
  H 0.199848 -2.468048 -0.181697
  H -0.072150 -1.274556 -1.453558
  H 2.166088 -0.928695 -0.614364
  H 1.628553 -1.076919 1.050769
  H 1.484365 1.149455 1.187438
  H 1.950683 1.305955 -0.491146
  H -0.101835 1.876939 -1.183432
  H -0.290843 2.327805 0.496023
  H -2.120693 1.026637 0.613769
  H -1.878217 0.526493 -1.051957
  H -1.995012 -1.466463 0.177125
  H -0.916166 -0.892422 1.450950
 18
 10.318585
  C -1.066889 -0.894774 0.391895
  C -1.424076 0.515346 -0.062966
  C -0.209530 1.453569 -0.202449
  C 1.166076 0.892875 0.205362
  C 1.379946 -0.626556 0.062508
  C 0.139539 -1.385224 -0.394511
  H 0.296663 -2.452717 -0.224816
  H -0.037274 -1.238192 -1.461782
  H 2.200417 -0.821708 -0.630711
  H 1.678627 -1.030679 1.032392
  H 1.362994 1.175840 1.240834
  H 1.912477 1.407341 -0.402849
  H -0.151800 1.796071 -1.237019
  H -0.384828 2.341684 0.407758
  H -2.148416 0.947464 0.630051
  H -1.918749 0.436537 -1.033501
  H -1.924874 -1.548510 0.220420
  H -0.838508 -0.914928 1.459141
 18
 9.588131
  C -1.022657 -0.936677 0.398218
  C -1.445010 0.456867 -0.054294
  C -0.265307 1.431867 -0.231106
  C 1.114502 0.937226 0.233907
  C 1.407542 -0.564580 0.053751
  C 0.196932 -1.372586 -0.400682
  H 0.399362 -2.434047 -0.242046
  H 0.005608 -1.223702 -1.465061
  H 2.225423 -0.703502 -0.655736
  H 1.741886 -0.972166 1.010467
  H 1.242912 1.199079 1.285703
  H 1.861719 1.507683 -0.321750
  H -0.197471 1.718273 -1.282118
  H -0.481140 2.345570 0.326586
  H -2.166212 0.867244 0.654946
  H -1.960686 0.355722 -1.011684
  H -1.852866 -1.628321 0.237907
  H -0.780976 -0.944764 1.462738
 18
 8.769727
  C -0.975801 -0.977993 0.403183
  C -1.463614 0.396079 -0.045695
  C -0.321414 1.406901 -0.258943
  C 1.058461 0.980787 0.261541
  C 1.433336 -0.497248 0.045202
  C 0.256644 -1.357302 -0.405485
  H 0.506083 -2.409896 -0.255517
  H 0.051392 -1.210290 -1.467435
  H 2.244088 -0.577538 -0.681457
  H 1.806999 -0.903625 0.987731
  H 1.119688 1.215487 1.325813
  H 1.798917 1.607365 -0.239998
  H -0.239123 1.637760 -1.322555
  H -0.580810 2.340501 0.244575
  H -2.179652 0.784897 0.680757
  H -2.000114 0.272199 -0.989000
  H -1.774611 -1.707133 0.251658
  H -0.723934 -0.973725 1.465363
 18
 8.028837
  C -0.930215 -1.021762 0.400381
  C -1.479540 0.334020 -0.036724
  C -0.379305 1.382215 -0.281915
  C 0.999765 1.026772 0.284270
  C 1.457691 -0.421723 0.036287
  C 0.322358 -1.343432 -0.402427
  H 0.622775 -2.380912 -0.240762
  H 0.110541 -1.219810 -1.466122
  H 2.251429 -0.441174 -0.712925
  H 1.880881 -0.817088 0.962187
  H 1.003528 1.232407 1.356300
  H 1.723824 1.706140 -0.170471
  H -0.282787 1.566409 -1.353509
  H -0.685828 2.325709 0.174676
  H -2.184929 0.698751 0.712361
  H -2.040034 0.193325 -0.963407
  H -1.693989 -1.785203 0.237353
  H -0.685463 -1.017176 1.464183
 18
 7.201880
  C -0.875366 -1.063890 0.402571
  C -1.493401 0.265165 -0.028649
  C -0.439096 1.350081 -0.307701
  C 0.932608 1.070009 0.309713
  C 1.478552 -0.340363 0.028233
  C 0.389851 -1.321193 -0.404272
  H 0.742948 -2.342275 -0.245345
  H 0.167215 -1.208068 -1.466903
  H 2.254215 -0.296997 -0.738703
  H 1.947019 -0.721736 0.938029
  H 0.875255 1.236493 1.387043
  H 1.633797 1.806077 -0.089431
  H -0.320771 1.482888 -1.384746
  H -0.796555 2.301055 0.093104
  H -2.191012 0.607366 0.738132
  H -2.072895 0.098581 -0.939178
  H -1.599768 -1.865239 0.242550
  H -0.626505 -1.048071 1.465292
 18
 6.527293
  C -0.816184 -1.109161 0.399777
  C -1.504676 0.189646 -0.021157
  C -0.504047 1.315155 -0.329883
  C 0.858975 1.115755 0.331447
  C 1.496364 -0.248251 0.020762
  C 0.465463 -1.295854 -0.401024
  H 0.876053 -2.293661 -0.233144
  H 0.238571 -1.205894 -1.465003
  H 2.245340 -0.140358 -0.766120
  H 2.015084 -0.604255 0.913293
  H 0.749428 1.239955 1.410478
  H 1.526459 1.906546 -0.017465
  H -0.363325 1.404533 -1.408747
  H -0.917811 2.263169 0.020396
  H -2.192273 0.506087 0.765523
  H -2.102757 -0.002503 -0.914349
  H -1.494761 -1.947905 0.231157
  H -0.573207 -1.088587 1.463806
 18
 5.932674
  C -0.743702 -1.155790 0.398862
  C -1.512806 0.101112 -0.014710
  C -0.576065 1.270577 -0.353424
  C 0.771846 1.161730 0.354397
  C 1.509557 -0.142091 0.014334
  C 0.549338 -1.259729 -0.399510
  H 1.023774 -2.228147 -0.228629
  H 0.316917 -1.189454 -1.463782
  H 2.226606 0.034071 -0.789821
  H 2.077502 -0.464291 0.889518
  H 0.611753 1.233408 1.431891
  H 1.392592 2.011112 0.061715
  H -0.406452 1.316874 -1.430856
  H -1.053018 2.207985 -0.059790
  H -2.193073 0.389020 0.789148
  H -2.124305 -0.125739 -0.890452
  H -1.366896 -2.035823 0.227707
  H -0.503093 -1.123875 1.463156
 18
 5.545807
  C -0.650533 -1.209501 0.394875
  C -1.515806 -0.011891 -0.010069
  C -0.665047 1.212595 -0.375024
  C 0.662768 1.213648 0.375222
  C 1.515762 -0.009090 0.009705
  C 0.652655 -1.208460 -0.394726
  H 1.203906 -2.133534 -0.215308
  H 0.420396 -1.166108 -1.460583
  H 2.190001 0.241702 -0.811565
  H 2.134855 -0.279191 0.867536
  H 0.461140 1.224709 1.448124
  H 1.214803 2.124974 0.137207
  H -0.463391 1.224450 -1.447912
  H -1.218749 2.122811 -0.136652
  H -2.191127 0.237477 0.810745
  H -2.133742 -0.283264 -0.868333
  H -1.200096 -2.135643 0.215803
  H -0.418379 -1.166316 1.460715
 18
 5.385789
  C -0.650686 -1.204688 0.395224
  C -1.515634 -0.001293 -0.000126
  C -0.652812 1.203668 -0.395246
  C 0.650542 1.204585 0.395444
  C 1.515662 0.001447 -0.000216
  C 0.652923 -1.203689 -0.395057
  H 1.204591 -2.128273 -0.215457
  H 0.418230 -1.164857 -1.460474
  H 2.161624 0.269642 -0.838536
  H 2.163294 -0.265215 0.837323
  H 0.415619 1.164435 1.460772
  H 1.200511 2.130374 0.216733
  H -0.417756 1.164328 -1.460542
  H -1.204481 2.128355 -0.216212
  H -2.162819 0.265503 0.837732
  H -2.162028 -0.269273 -0.838200
  H -1.200677 -2.130365 0.215980
  H -0.416054 -1.165019 1.460620
