  18
 
 C         -1.5157007107       -0.0000305098       -0.0002787400
 C         -0.6516407028       -1.2042398246       -0.3951228484
 C          0.6518238461       -1.2039428064        0.3953988134
 C          1.5157433393        0.0000892288       -0.0002333358
 C          0.6516002624        1.2041584634       -0.3952071873
 C         -0.6518126887        1.2039688056        0.3954430309
 H         -1.2027288941        2.1291868822        0.2166666598
 H         -0.4169499699        1.1640978274        1.4608062012
 H          1.2023588565        2.1293567368       -0.2160382269
 H          0.4166957342        1.1646702516       -1.4605644077
 H          2.1622756921       -0.2673665175       -0.8384296148
 H          2.1627823865        0.2676102230        0.8375788650
 H          0.4169507044       -1.1641624675        1.4607570830
 H          1.2027262320       -2.1291477430        0.2165737344
 H         -0.4167747615       -1.1650987335       -1.4604829981
 H         -1.2024432074       -2.1293494479       -0.2156781589
 H         -2.1629728702       -0.2673200835        0.8374237392
 H         -2.1620789412        0.2674830660       -0.8386096910
