 18
 0.000000
  C 1.184132 0.832115 0.241673
  C -0.128620 1.441568 -0.241623
  C -1.312784 0.609375 0.241590
  C -1.184160 -0.832219 -0.241658
  C 0.128626 -1.441433 0.241729
  C 1.312816 -0.609405 -0.241728
  H 1.342118 -0.622992 -1.333959
  H 2.246662 -1.042839 0.123248
  H 0.131450 -1.473663 1.333993
  H 0.220108 -2.466848 -0.123255
  H -1.210658 -0.850968 -1.333886
  H -2.026434 -1.424157 0.123463
  H -1.342268 0.623109 1.333839
  H -2.246557 1.042775 -0.123545
  H -0.131488 1.473875 -1.333839
  H -0.220097 2.467002 0.123439
  H 1.210528 0.850646 1.333918
  H 2.026524 1.424041 -0.123201
 18
 0.224187
  C 1.219997 0.789267 0.230190
  C -0.078769 1.453234 -0.219025
  C -1.302081 0.650521 0.217927
  C -1.209346 -0.805558 -0.230063
  C 0.088152 -1.445500 0.251899
  C 1.291279 -0.656000 -0.250858
  H 1.305402 -0.673751 -1.343377
  H 2.214859 -1.119400 0.103370
  H 0.098378 -1.464885 1.344434
  H 0.146104 -2.477409 -0.101691
  H -1.253987 -0.852953 -1.320864
  H -2.062494 -1.363057 0.163441
  H -1.392936 0.690592 1.306119
  H -2.200663 1.103152 -0.208039
  H -0.078814 1.551639 -1.307300
  H -0.136826 2.458058 0.206092
  H 1.280518 0.812013 1.321019
  H 2.071122 1.350021 -0.163076
 18
 0.843498
  C 1.252750 0.748058 0.218774
  C -0.031476 1.463297 -0.194660
  C -1.291540 0.689184 0.192811
  C -1.233109 -0.780183 -0.218645
  C 0.050017 -1.447659 0.261887
  C 1.269170 -0.698748 -0.260086
  H 1.268114 -0.720020 -1.352663
  H 2.182252 -1.190186 0.083550
  H 0.068699 -1.455100 1.354489
  H 0.076366 -2.484653 -0.080554
  H -1.296214 -0.856231 -1.306954
  H -2.094791 -1.303862 0.202093
  H -1.442642 0.757877 1.272836
  H -2.152104 1.156581 -0.291989
  H -0.023644 1.627705 -1.274898
  H -0.060218 2.442826 0.288826
  H 1.348096 0.771251 1.307145
  H 2.109534 1.279863 -0.201772
 18
 1.769588
  C 1.283004 0.707189 0.208088
  C 0.014671 1.471494 -0.168916
  C -1.280125 0.726530 0.166576
  C -1.255872 -0.754738 -0.207918
  C 0.012916 -1.448120 0.271927
  C 1.245860 -0.738911 -0.269667
  H 1.228656 -0.762266 -1.362070
  H 2.148135 -1.257594 0.062389
  H 0.040826 -1.443395 1.364350
  H 0.008604 -2.489337 -0.058614
  H -1.337085 -0.858600 -1.292739
  H -2.124756 -1.244721 0.238015
  H -1.489905 0.826004 1.234273
  H -2.099798 1.205201 -0.374798
  H 0.035047 1.701053 -1.236980
  H 0.011884 2.421610 0.370862
  H 1.412405 0.726846 1.293034
  H 2.143581 1.211811 -0.237633
 18
 2.927859
  C 1.310885 0.667203 0.197423
  C 0.059404 1.478078 -0.141995
  C -1.267777 0.763033 0.139421
  C -1.278111 -0.728790 -0.197216
  C -0.023446 -1.447474 0.280910
  C 1.221999 -0.776727 -0.278439
  H 1.190504 -0.802147 -1.370483
  H 2.112454 -1.321423 0.043870
  H 0.014146 -1.433388 1.372965
  H -0.057641 -2.491265 -0.039737
  H -1.378354 -0.859431 -1.277581
  H -2.152474 -1.184981 0.273154
  H -1.533402 0.895401 1.190899
  H -2.043979 1.249388 -0.456164
  H 0.095926 1.770753 -1.193993
  H 0.079241 2.394944 0.451887
  H 1.473852 0.680886 1.277957
  H 2.173187 1.146043 -0.272719
 18
 4.231308
  C 1.336462 0.627775 0.187101
  C 0.102849 1.482706 -0.114171
  C -1.254098 0.798515 0.111565
  C -1.299512 -0.702281 -0.186864
  C -0.059032 -1.445509 0.289541
  C 1.197375 -0.812342 -0.287072
  H 1.151791 -0.839059 -1.378567
  H 2.075492 -1.382125 0.025651
  H -0.011351 -1.422962 1.381044
  H -0.122426 -2.490866 -0.021528
  H -1.418940 -0.858321 -1.261911
  H -2.178070 -1.124773 0.306474
  H -1.572637 0.965827 1.143028
  H -1.984532 1.289087 -0.535743
  H 0.158631 1.836322 -1.146267
  H 0.141839 2.362943 0.531481
  H 1.531684 0.632856 1.262370
  H 2.198974 1.082385 -0.305989
 18
 5.595047
  C 1.359823 0.588796 0.177181
  C 0.145010 1.485179 -0.085616
  C -1.238789 0.832901 0.083147
  C -1.319974 -0.675127 -0.176923
  C -0.093866 -1.442178 0.298097
  C 1.171935 -0.845890 -0.295793
  H 1.112028 -0.872942 -1.386542
  H 2.037372 -1.439964 0.007026
  H -0.035660 -1.411519 1.388844
  H -0.185917 -2.488292 -0.003187
  H -1.458628 -0.855201 -1.245881
  H -2.201670 -1.064013 0.337807
  H -1.607268 1.037228 1.090834
  H -1.921406 1.324334 -0.613369
  H 0.222709 1.897572 -1.094015
  H 0.199580 2.325780 0.609390
  H 1.585799 0.582862 1.246403
  H 2.221379 1.020778 -0.337285
 18
 6.942622
  C 1.381107 0.550300 0.167565
  C 0.185859 1.485453 -0.056427
  C -1.221669 0.866207 0.054215
  C -1.339543 -0.647197 -0.167290
  C -0.128036 -1.437526 0.306542
  C 1.145743 -0.877495 -0.304518
  H 1.071392 -0.903962 -1.394329
  H 1.998107 -1.495146 -0.011842
  H -0.058921 -1.399141 1.396344
  H -0.248264 -2.483630 0.015198
  H -1.497521 -0.849807 -1.229484
  H -2.223368 -1.002512 0.367462
  H -1.636613 1.109466 1.034586
  H -1.854543 1.355215 -0.688977
  H 0.287576 1.954043 -1.037532
  H 0.252316 2.283690 0.685451
  H 1.636160 0.531363 1.230035
  H 2.240698 0.961154 -0.366907
 18
 8.212369
  C 1.400515 0.512496 0.158060
  C 0.225346 1.483615 -0.026816
  C -1.202629 0.898549 0.024930
  C -1.358438 -0.618247 -0.157780
  C -0.161803 -1.431806 0.314346
  C 1.119112 -0.907331 -0.312677
  H 1.031196 -0.932754 -1.401451
  H 1.957687 -1.547823 -0.029385
  H -0.081793 -1.387056 1.403115
  H -0.309686 -2.476878 0.032130
  H -1.536399 -0.841487 -1.212602
  H -2.243085 -0.939813 0.396329
  H -1.659576 1.182221 0.975033
  H -1.783916 1.381999 -0.762249
  H 0.352458 2.004927 -0.977631
  H 0.299804 2.237131 0.759286
  H 1.683025 0.479515 1.213177
  H 2.256946 0.903482 -0.395748
 18
 9.338737
  C 1.418140 0.475181 0.148771
  C 0.263504 1.479463 0.003112
  C -1.181393 0.929748 -0.004633
  C -1.376503 -0.588239 -0.148489
  C -0.195159 -1.424897 0.321855
  C 1.091907 -0.935515 -0.320569
  H 0.990733 -0.959162 -1.408175
  H 1.916144 -1.598261 -0.046532
  H -0.104165 -1.374445 1.409454
  H -0.370324 -2.468142 0.048616
  H -1.575076 -0.830395 -1.195361
  H -2.260855 -0.875763 0.424233
  H -1.676198 1.255340 0.912212
  H -1.709391 1.404579 -0.833128
  H 0.417213 2.050441 -0.914388
  H 0.341989 2.186212 0.830753
  H 1.726644 0.427161 1.195929
  H 2.270424 0.847658 -0.423624
 18
 10.268034
  C 1.434101 0.438253 0.139705
  C 0.300346 1.472901 0.033237
  C -1.157783 0.959696 -0.034401
  C -1.393676 -0.557079 -0.139424
  C -0.228145 -1.416763 0.329202
  C 1.064083 -0.962163 -0.328294
  H 0.949761 -0.983187 -1.414582
  H 1.873453 -1.646676 -0.063625
  H -0.126030 -1.360987 1.415484
  H -0.430328 -2.457451 0.065057
  H -1.613554 -0.816478 -1.177775
  H -2.276627 -0.810106 0.451217
  H -1.686260 1.328581 0.846290
  H -1.630924 1.422846 -0.901454
  H 0.481630 2.090549 -0.848028
  H 0.378842 2.131175 0.899646
  H 1.767264 0.374362 1.178328
  H 2.281323 0.793591 -0.450581
 18
 10.951212
  C 1.448446 0.401564 0.130916
  C 0.335843 1.463772 0.063488
  C -1.131596 0.988170 -0.064327
  C -1.409756 -0.524776 -0.130635
  C -0.260631 -1.407219 0.336789
  C 1.035474 -0.987282 -0.336222
  H 0.907487 -1.004470 -1.420966
  H 1.829588 -1.693200 -0.081750
  H -0.146954 -1.345785 1.421524
  H -0.489706 -2.444815 0.082590
  H -1.651385 -0.799970 -1.159939
  H -2.290412 -0.742831 0.476956
  H -1.689721 1.401677 0.777184
  H -1.548603 1.436499 -0.967097
  H 0.545573 2.125351 -0.778511
  H 0.410418 2.072195 0.965790
  H 1.804920 0.320762 1.160469
  H 2.290004 0.741222 -0.476293
 18
 11.402510
  C 1.461578 0.365698 0.121957
  C 0.370085 1.452706 0.093258
  C -1.103030 1.015608 -0.093817
  C -1.425193 -0.490798 -0.121681
  C -0.293293 -1.397273 0.342651
  C 1.007278 -1.011424 -0.342382
  H 0.868569 -1.025590 -1.425820
  H 1.784890 -1.737962 -0.095234
  H -0.169282 -1.333466 1.426084
  H -0.548841 -2.430355 0.095557
  H -1.691277 -0.779010 -1.141221
  H -2.301137 -0.672736 0.504143
  H -1.685067 1.473659 0.707253
  H -1.462843 1.446318 -1.029021
  H 0.608302 2.153563 -0.708210
  H 0.436650 2.010522 1.028137
  H 1.841202 0.269361 1.141724
  H 2.295397 0.690739 -0.503452
 18
 11.536864
  C -1.438334 -0.457059 -0.113305
  C -1.072348 1.040140 -0.123373
  C 0.401949 1.439233 0.122834
  C 1.473224 0.331098 0.113042
  C 0.979175 -1.033385 -0.349175
  C -0.323673 -1.385735 0.349946
  H -0.188462 -1.317343 1.431655
  H -0.604921 -2.414399 0.112570
  H 0.828132 -1.043410 -1.430902
  H 1.740820 -1.779573 -0.111068
  H 1.875170 0.218348 1.122405
  H 2.298755 0.643693 -0.529386
  H 0.668664 2.177449 -0.634879
  H 0.456663 1.945830 1.087206
  H -1.675045 1.543154 0.634236
  H -1.375101 1.449782 -1.087839
  H -1.727848 -0.757564 -1.122741
  H -2.309228 -0.603382 0.528621
 18
 11.372603
  C -1.450732 -0.421414 -0.104780
  C -1.037870 1.062779 -0.155039
  C 0.432847 1.421616 0.154257
  C 1.482856 0.294295 0.104504
  C 0.946127 -1.053440 -0.360486
  C -0.353881 -1.370175 0.361509
  H -0.202444 -1.289736 1.439983
  H -0.662415 -2.395109 0.142582
  H 0.774888 -1.052880 -1.438999
  H 1.691901 -1.820964 -0.140628
  H 1.903536 0.159351 1.103433
  H 2.302850 0.595884 -0.550181
  H 0.729850 2.197910 -0.552772
  H 0.471653 1.874118 1.146210
  H -1.659043 1.615330 0.551769
  H -1.280636 1.446221 -1.147144
  H -1.761271 -0.735534 -1.103754
  H -2.317938 -0.531009 0.549354
 18
 11.005440
  C -1.463131 -0.383259 -0.095745
  C -1.001989 1.084829 -0.184799
  C 0.462179 1.403261 0.183743
  C 1.491302 0.259140 0.095463
  C 0.914670 -1.073247 -0.367573
  C -0.385568 -1.355434 0.368871
  H -0.221590 -1.270671 1.445076
  H -0.720602 -2.374264 0.160884
  H 0.730550 -1.065577 -1.443835
  H 1.642389 -1.860765 -0.158436
  H 1.932728 0.106619 1.082779
  H 2.301605 0.550509 -0.575676
  H 0.788588 2.210542 -0.474110
  H 0.481561 1.802725 1.198901
  H -1.634186 1.684071 0.472679
  H -1.185385 1.439630 -1.200174
  H -1.800584 -0.706133 -1.083056
  H -2.321767 -0.454178 0.574794
 18
 10.319131
  C -1.473279 -0.345981 -0.087560
  C -0.962681 1.102242 -0.216604
  C 0.489697 1.379779 0.215270
  C 1.498164 0.221566 0.087247
  C 0.877895 -1.089249 -0.381765
  C -0.413794 -1.335327 0.383350
  H -0.228638 -1.229364 1.453943
  H -0.775025 -2.350471 0.204610
  H 0.666973 -1.060602 -1.452501
  H 1.587724 -1.899552 -0.201633
  H 1.952781 0.043683 1.064473
  H 2.303961 0.505275 -0.592553
  H 0.845830 2.218442 -0.386117
  H 0.484073 1.722920 1.251263
  H -1.602847 1.751026 0.384207
  H -1.083794 1.422527 -1.252779
  H -1.829463 -0.679939 -1.064678
  H -2.327513 -0.378597 0.591587
 18
 9.588890
  C -1.483670 -0.304659 -0.078256
  C -0.922910 1.120644 -0.244844
  C 0.516015 1.357648 0.243307
  C 1.504024 0.187085 0.077876
  C 0.845166 -1.106702 -0.388230
  C -0.445253 -1.318305 0.390068
  H -0.247029 -1.208873 1.457869
  H -0.832634 -2.325732 0.222820
  H 0.622575 -1.068496 -1.456223
  H 1.534831 -1.936594 -0.219325
  H 1.978886 -0.007749 1.042113
  H 2.297744 0.463288 -0.618838
  H 0.901096 2.219496 -0.305524
  H 0.484457 1.648028 1.294930
  H -1.563978 1.814170 0.303400
  H -0.985960 1.404946 -1.296728
  H -1.869990 -0.642618 -1.042306
  H -2.324719 -0.296647 0.617626
 18
 8.770712
  C -1.492827 -0.261238 -0.068450
  C -0.881531 1.137661 -0.271909
  C 0.541147 1.334293 0.270197
  C 1.508573 0.153113 0.068118
  C 0.812332 -1.123461 -0.393613
  C -0.477049 -1.300644 0.395587
  H -0.266698 -1.190634 1.460977
  H -0.890631 -2.298980 0.237531
  H 0.580257 -1.076561 -1.459217
  H 1.480772 -1.972123 -0.233825
  H 2.004561 -0.057630 1.018157
  H 2.288167 0.423094 -0.646612
  H 0.955072 2.215226 -0.224889
  H 0.481391 1.572571 1.333794
  H -1.518698 1.874097 0.222398
  H -0.888429 1.382123 -1.335709
  H -1.912320 -0.599911 -1.018454
  H -2.317197 -0.211652 0.645632
 18
 8.029904
  C -1.501088 -0.213677 -0.057573
  C -0.840890 1.156633 -0.293692
  C 0.566631 1.313528 0.291974
  C 1.511914 0.121611 0.057238
  C 0.783488 -1.142922 -0.391481
  C -0.512729 -1.286360 0.393476
  H -0.300276 -1.195043 1.460314
  H -0.953724 -2.271110 0.224509
  H 0.556341 -1.102574 -1.458431
  H 1.430065 -2.006363 -0.220767
  H 2.034907 -0.097834 0.990521
  H 2.271287 0.384877 -0.681531
  H 1.008884 2.205486 -0.156837
  H 0.482398 1.507297 1.362913
  H -1.468404 1.930053 0.154258
  H -0.801194 1.363057 -1.364840
  H -1.962218 -0.544151 -0.990766
  H -2.300388 -0.122838 0.680405
 18
 7.202953
  C -1.507265 -0.165983 -0.046638
  C -0.797174 1.171461 -0.317738
  C 0.590513 1.288533 0.316176
  C 1.514176 0.088341 0.046282
  C 0.750285 -1.159153 -0.394821
  C -0.545771 -1.267490 0.396677
  H -0.324087 -1.181782 1.462061
  H -1.013761 -2.240242 0.231577
  H 0.517512 -1.113631 -1.460318
  H 1.374206 -2.039729 -0.228067
  H 2.060015 -0.145564 0.962790
  H 2.255517 0.347632 -0.711949
  H 1.061247 2.191817 -0.077836
  H 0.475864 1.432722 1.392159
  H -1.412265 1.983748 0.075486
  H -0.708154 1.331783 -1.393861
  H -2.005531 -0.489172 -0.963105
  H -2.282139 -0.033378 0.710795
 18
 6.528165
  C -1.511940 -0.115527 -0.035076
  C -0.753922 1.187265 -0.337531
  C 0.615319 1.264980 0.336335
  C 1.515518 0.055865 0.034700
  C 0.718943 -1.177045 -0.393716
  C -0.581445 -1.250029 0.395220
  H -0.357282 -1.180515 1.461309
  H -1.076922 -2.207701 0.222696
  H 0.488428 -1.134906 -1.459887
  H 1.319274 -2.072445 -0.219793
  H 2.086678 -0.188634 0.932706
  H 2.235023 0.310928 -0.745711
  H 1.114296 2.173098 -0.008597
  H 0.473248 1.365453 1.414038
  H -1.352179 2.033506 0.006838
  H -0.624043 1.302426 -1.415307
  H -2.051109 -0.424012 -0.933158
  H -2.256267 0.057388 0.744587
 18
 5.933370
  C -1.514741 -0.063747 -0.022927
  C -0.708646 1.200355 -0.357818
  C 0.639304 1.238770 0.357226
  C 1.515971 0.022519 0.022529
  C 0.684946 -1.192906 -0.395246
  C -0.616011 -1.229511 0.396163
  H -0.386010 -1.171049 1.461677
  H -1.139073 -2.172088 0.222727
  H 0.452001 -1.148753 -1.460812
  H 1.260740 -2.104047 -0.220851
  H 2.110733 -0.235726 0.901099
  H 2.214043 0.275052 -0.777952
  H 1.165776 2.150340 0.066894
  H 0.466597 1.293220 1.433782
  H -1.286095 2.080570 -0.067629
  H -0.539284 1.264355 -1.434379
  H -2.093136 -0.356079 -0.901742
  H -2.226684 0.148987 0.776900
 18
 5.546190
  C -1.515807 -0.009842 -0.010095
  C -0.663424 1.213559 -0.374945
  C 0.664441 1.212810 0.375214
  C 1.515780 -0.011096 0.009690
  C 0.651025 -1.209252 -0.394800
  C -0.652119 -1.208577 0.394878
  H -0.419833 -1.165631 1.460704
  H -1.202904 -2.134009 0.215874
  H 0.418783 -1.166507 -1.460645
  H 1.201026 -2.135089 -0.215478
  H 2.134460 -0.282070 0.867538
  H 2.190380 0.238820 -0.811546
  H 1.217702 2.123385 0.137187
  H 0.462888 1.224129 1.448126
  H -1.215921 2.124472 -0.136426
  H -0.461809 1.225268 -1.447840
  H -2.133985 -0.280393 -0.868445
  H -2.190898 0.240387 0.810642
 18
 5.385795
  C -1.515676 0.000666 -0.000150
  C -0.651188 1.204494 -0.395153
  C 0.652280 1.203745 0.395385
  C 1.515727 -0.000566 -0.000216
  C 0.651193 -1.204436 -0.395100
  C -0.652352 -1.203882 0.395267
  H -0.417541 -1.164488 1.460664
  H -1.203507 -2.128885 0.216039
  H 0.416523 -1.165178 -1.460509
  H 1.201593 -2.129798 -0.215612
  H 2.162965 -0.268145 0.837353
  H 2.162057 0.266902 -0.838513
  H 1.203539 2.128780 0.216705
  H 0.417411 1.163828 1.460708
  H -1.201732 2.129871 -0.215954
  H -0.416200 1.164912 -1.460498
  H -2.162263 -0.266429 -0.838376
  H -2.162662 0.268388 0.837593
