 18
 0.000000
  C -0.651530 -1.204143 0.395249
  C 0.651863 -1.203887 -0.395401
  C 1.515798 0.000119 0.000190
  C 0.651626 1.204164 0.395097
  C -0.652005 1.203952 -0.395212
  C -1.515769 -0.000238 0.000109
  H -2.162229 -0.267843 -0.838069
  H -2.162819 0.266880 0.837975
  H -0.417346 1.164697 -1.460712
  H 1.202314 2.129330 0.215427
  H 0.417059 1.164929 1.460570
  H -1.203014 2.128983 -0.215759
  H 2.162334 -0.267343 0.838415
  H 2.162827 0.267619 -0.837671
  H -1.202343 -2.129368 0.216171
  H 0.417076 -1.164036 -1.460781
  H 1.202923 -2.128996 -0.216592
  H -0.416581 -1.164464 1.460644
 18
 0.522199
  C -0.666069 -1.221604 0.369871
  C 0.666449 -1.221341 -0.370015
  C 1.515904 0.000165 0.000101
  C 0.666194 1.221666 0.369740
  C -0.666541 1.221428 -0.369789
  C -1.515888 -0.000275 -0.000006
  H -2.163779 -0.250257 -0.842539
  H -2.164157 0.249367 0.842330
  H -0.476751 1.242996 -1.444662
  H 1.218776 2.129178 0.117374
  H 0.476400 1.243285 1.444611
  H -1.219400 2.128804 -0.117528
  H 2.163719 -0.249700 0.842724
  H 2.164245 0.250008 -0.842124
  H -1.218686 -2.129225 0.117973
  H 0.476395 -1.242445 -1.444849
  H 1.219336 -2.128837 -0.118262
  H -0.475964 -1.242824 1.444699
 18
 1.898689
  C -0.680642 -1.238283 0.342674
  C 0.681032 -1.238018 -0.342821
  C 1.517459 0.000173 0.000103
  C 0.680765 1.238355 0.342531
  C -0.681117 1.238115 -0.342585
  C -1.517442 -0.000273 -0.000013
  H -2.167124 -0.230285 -0.846888
  H -2.167457 0.229417 0.846691
  H -0.539574 1.319660 -1.421957
  H 1.230111 2.125905 0.019939
  H 0.539192 1.319973 1.421896
  H -1.230726 2.125532 -0.020089
  H 2.167024 -0.229723 0.847093
  H 2.167585 0.230048 -0.846467
  H -1.230031 -2.125963 0.020522
  H 0.539195 -1.319115 -1.422195
  H 1.230687 -2.125584 -0.020814
  H -0.538754 -1.319518 1.422028
 18
 3.901638
  C -0.695550 -1.254841 0.312549
  C 0.695943 -1.254575 -0.312701
  C 1.520074 0.000180 0.000115
  C 0.695671 1.254921 0.312394
  C -0.696027 1.254675 -0.312450
  C -1.520055 -0.000267 -0.000012
  H -2.170889 -0.208093 -0.851679
  H -2.171215 0.207243 0.851481
  H -0.605341 1.393558 -1.391465
  H 1.237037 2.119851 -0.078437
  H 0.604936 1.393899 1.391383
  H -1.237647 2.119480 0.078282
  H 2.170774 -0.207530 0.851905
  H 2.171363 0.207875 -0.851232
  H -1.236986 -2.119931 -0.077843
  H 0.604944 -1.393001 -1.391747
  H 1.237636 -2.119573 0.077542
  H -0.604483 -1.393433 1.391565
 18
 6.319088
  C -0.709868 -1.270421 0.280690
  C 0.710267 -1.270154 -0.280845
  C 1.523199 0.000185 0.000123
  C 0.709986 1.270501 0.280523
  C -0.710346 1.270252 -0.280583
  C -1.523178 -0.000259 -0.000015
  H -2.174906 -0.184916 -0.856233
  H -2.175220 0.184090 0.856021
  H -0.671400 1.464078 -1.354215
  H 1.239391 2.110317 -0.175860
  H 0.670972 1.464442 1.354126
  H -1.240003 2.109963 0.175704
  H 2.174779 -0.184355 0.856476
  H 2.175387 0.184720 -0.855767
  H -1.239368 -2.110421 -0.175253
  H 0.670995 -1.463518 -1.354550
  H 1.240011 -2.110076 0.174949
  H -0.670513 -1.463972 1.354357
 18
 8.967640
  C -0.723193 -1.284715 0.247503
  C 0.723594 -1.284450 -0.247663
  C 1.526485 0.000193 0.000131
  C 0.723305 1.284795 0.247326
  C -0.723666 1.284549 -0.247390
  C -1.526467 -0.000252 -0.000018
  H -2.178865 -0.161303 -0.860350
  H -2.179170 0.160500 0.860133
  H -0.736376 1.531095 -1.310748
  H 1.237256 2.097060 -0.271824
  H 0.735932 1.531474 1.310656
  H -1.237857 2.096718 0.271664
  H 2.178720 -0.160736 0.860601
  H 2.179344 0.161135 -0.859864
  H -1.237254 -2.097189 -0.271210
  H 0.735974 -1.530536 -1.311138
  H 1.237899 -2.096867 0.270905
  H -0.735475 -1.531003 1.310935
 18
 11.667785
  C -0.735197 -1.297481 0.213392
  C 0.735600 -1.297223 -0.213553
  C 1.529685 0.000200 0.000138
  C 0.735298 1.297563 0.213208
  C -0.735665 1.297314 -0.213272
  C -1.529662 -0.000246 -0.000020
  H -2.182494 -0.137674 -0.863941
  H -2.182792 0.136898 0.863722
  H -0.799015 1.594349 -1.261727
  H 1.230677 2.080034 -0.365697
  H 0.798549 1.594744 1.261624
  H -1.231273 2.079704 0.365541
  H 2.182345 -0.137104 0.864204
  H 2.182980 0.137535 -0.863446
  H -1.230705 -2.080185 -0.365084
  H 0.798618 -1.593796 -1.262163
  H 1.231337 -2.079885 0.364781
  H -0.798104 -1.594269 1.261945
 18
 14.259448
  C -0.745660 -1.308556 0.178618
  C 0.746067 -1.308299 -0.178781
  C 1.532603 0.000207 0.000142
  C 0.745751 1.308636 0.178427
  C -0.746120 1.308391 -0.178493
  C -1.532583 -0.000238 -0.000023
  H -2.185635 -0.114249 -0.866993
  H -2.185920 0.113501 0.866767
  H -0.858505 1.653877 -1.207679
  H 1.219651 2.059227 -0.457219
  H 0.858024 1.654277 1.207568
  H -1.220238 2.058920 0.457069
  H 2.185476 -0.113673 0.867262
  H 2.186116 0.114143 -0.866488
  H -1.219711 -2.059409 -0.456614
  H 0.858124 -1.653330 -1.208163
  H 1.220337 -2.059133 0.456315
  H -0.857595 -1.653813 1.207937
 18
 16.597369
  C -0.754402 -1.317760 0.143433
  C 0.754809 -1.317508 -0.143598
  C 1.535137 0.000216 0.000145
  C 0.754480 1.317831 0.143237
  C -0.754849 1.317592 -0.143305
  C -1.535117 -0.000230 -0.000025
  H -2.188304 -0.091093 -0.869438
  H -2.188579 0.090377 0.869210
  H -0.914372 1.709869 -1.149057
  H 1.204118 2.034695 -0.546117
  H 0.913879 1.710275 1.148939
  H -1.204693 2.034405 0.545969
  H 2.188135 -0.090512 0.869713
  H 2.188784 0.091026 -0.868932
  H -1.204210 -2.034905 -0.545519
  H 0.914012 -1.709327 -1.149570
  H 1.204826 -2.034650 0.545221
  H -0.913471 -1.709822 1.149344
 18
 18.558789
  C -0.761351 -1.325062 0.107925
  C 0.761758 -1.324819 -0.108089
  C 1.537179 0.000224 0.000148
  C 0.761416 1.325133 0.107726
  C -0.761786 1.324894 -0.107794
  C -1.537158 -0.000224 -0.000025
  H -2.190281 -0.068241 -0.871403
  H -2.190544 0.067552 0.871171
  H -0.966121 1.762286 -1.086257
  H 1.183977 2.006470 -0.632408
  H 0.965615 1.762699 1.086139
  H -1.184537 2.006194 0.632263
  H 2.190106 -0.067651 0.871678
  H 2.190757 0.068207 -0.870891
  H -1.184102 -2.006700 -0.631824
  H 0.965787 -1.761766 -1.086819
  H 1.184705 -2.006471 0.631533
  H -0.965236 -1.762255 1.086576
 18
 20.035385
  C -0.766341 -1.330266 0.072333
  C 0.766748 -1.330031 -0.072498
  C 1.538700 0.000231 0.000146
  C 0.766390 1.330332 0.072136
  C -0.766760 1.330095 -0.072203
  C -1.538679 -0.000215 -0.000026
  H -2.191885 -0.045617 -0.872693
  H -2.192129 0.044963 0.872463
  H -1.013736 1.811399 -1.019537
  H 1.159318 1.974709 -0.715590
  H 1.013221 1.811816 1.019421
  H -1.159868 1.974446 0.715450
  H 2.191703 -0.045024 0.872965
  H 2.192347 0.045621 -0.872188
  H -1.159480 -1.974954 -0.715031
  H 1.013438 -1.810905 -1.020125
  H 1.160071 -1.974752 0.714752
  H -1.012876 -1.811389 1.019877
 18
 20.954823
  C -0.769355 -1.333390 0.036574
  C 0.769763 -1.333161 -0.036739
  C 1.539646 0.000239 0.000146
  C 0.769391 1.333443 0.036376
  C -0.769759 1.333216 -0.036443
  C -1.539627 -0.000206 -0.000027
  H -2.192976 -0.023119 -0.873399
  H -2.193211 0.022501 0.873169
  H -1.057021 1.857140 -0.949053
  H 1.130110 1.939488 -0.795776
  H 1.056493 1.857558 0.948931
  H -1.130645 1.939248 0.795640
  H 2.192791 -0.022523 0.873673
  H 2.193435 0.023162 -0.872893
  H -1.130302 -1.939756 -0.795236
  H 1.056754 -1.856669 -0.949675
  H 1.130883 -1.939579 0.794964
  H -1.056184 -1.857155 0.949418
 18
 21.288264
  C -0.770750 -1.334974 0.000582
  C 0.771154 -1.334749 -0.000749
  C 1.539767 0.000245 0.000155
  C 0.770769 1.335017 0.000372
  C -0.771136 1.334795 -0.000442
  C -1.539746 -0.000199 -0.000027
  H -2.191723 -0.000634 -0.874563
  H -2.191988 0.000047 0.874310
  H -1.094770 1.898945 -0.875884
  H 1.095037 1.900007 -0.874303
  H 1.094234 1.899367 0.875750
  H -1.095556 1.899796 0.874166
  H 2.191526 -0.000033 0.874851
  H 2.192221 0.000712 -0.874021
  H -1.095286 -1.900325 -0.873752
  H 1.094518 -1.898472 -0.876570
  H 1.095850 -1.900177 0.873479
  H -1.093939 -1.898957 0.876297
 18
 20.962761
  C -0.769402 -1.333421 -0.036018
  C 0.769804 -1.333207 0.035854
  C 1.539657 0.000250 0.000146
  C 0.769405 1.333455 -0.036216
  C -0.769770 1.333236 0.036149
  C -1.539634 -0.000196 -0.000028
  H -2.192987 0.022250 -0.873406
  H -2.193207 -0.022813 0.873176
  H -1.130456 1.939049 -0.796179
  H 1.056737 1.857592 -0.948689
  H 1.129913 1.939466 0.796050
  H -1.057241 1.857395 0.948565
  H 2.192788 0.022858 0.873679
  H 2.193449 -0.022142 -0.872902
  H -1.057005 -1.857906 -0.948200
  H 1.130258 -1.938635 -0.796855
  H 1.057551 -1.857782 0.947942
  H -1.129677 -1.939105 0.796581
 18
 20.048870
  C -0.766421 -1.330320 -0.071833
  C 0.766821 -1.330113 0.071669
  C 1.538713 0.000256 0.000145
  C 0.766410 1.330341 -0.072031
  C -0.766772 1.330130 0.071963
  C -1.538695 -0.000186 -0.000026
  H -2.191915 0.044783 -0.872701
  H -2.192134 -0.045308 0.872471
  H -1.159745 1.974329 -0.715888
  H 1.013432 1.811799 -1.019283
  H 1.159194 1.974737 0.715750
  H -1.013916 1.811624 1.019162
  H 2.191711 0.045392 0.872980
  H 2.192377 -0.044637 -0.872200
  H -1.013728 -1.812132 -1.018819
  H 1.159581 -1.973936 -0.716585
  H 1.014261 -1.812035 1.018569
  H -1.158990 -1.974404 0.716304
 18
 18.576246
  C -0.761465 -1.325131 -0.107466
  C 0.761862 -1.324934 0.107302
  C 1.537199 0.000264 0.000147
  C 0.761439 1.325148 -0.107665
  C -0.761796 1.324947 0.107598
  C -1.537181 -0.000179 -0.000025
  H -2.190326 0.067431 -0.871417
  H -2.190546 -0.067925 0.871182
  H -1.184452 2.006133 -0.632614
  H 0.965789 1.762629 -1.086090
  H 1.183899 2.006537 0.632471
  H -0.966253 1.762483 1.085974
  H 2.190108 0.068046 0.871696
  H 2.190796 -0.067248 -0.870906
  H -0.966120 -1.762986 -1.085653
  H 1.184330 -2.005768 -0.633346
  H 0.966634 -1.762914 1.085404
  H -1.183731 -2.006228 0.633057
 18
 16.616746
  C -0.754541 -1.317842 -0.143021
  C 0.754935 -1.317652 0.142857
  C 1.535158 0.000270 0.000145
  C 0.754501 1.317852 -0.143218
  C -0.754856 1.317654 0.143148
  C -1.535140 -0.000169 -0.000025
  H -2.188353 0.090314 -0.869456
  H -2.188572 -0.090771 0.869224
  H -1.204635 2.034392 -0.546240
  H 0.914005 1.710155 -1.148955
  H 1.204074 2.034792 0.546088
  H -0.914454 1.710035 1.148852
  H 2.188131 0.090931 0.869735
  H 2.188833 -0.090094 -0.868956
  H -0.914364 -1.710526 -1.148556
  H 1.204543 -2.034055 -0.546985
  H 0.914861 -1.710488 1.148325
  H -1.203940 -2.034501 0.546685
 18
 14.278970
  C -0.745820 -1.308638 -0.178252
  C 0.746210 -1.308464 0.178089
  C 1.532627 0.000278 0.000141
  C 0.745767 1.308647 -0.178445
  C -0.746117 1.308459 0.178374
  C -1.532606 -0.000161 -0.000024
  H -2.185692 0.113492 -0.867014
  H -2.185913 -0.113920 0.866789
  H -1.220197 2.058940 -0.457254
  H 0.858105 1.654107 -1.207647
  H 1.219633 2.059341 0.457104
  H -0.858533 1.654010 1.207544
  H 2.185469 0.114115 0.867288
  H 2.186172 -0.113237 -0.866514
  H -0.858487 -1.654481 -1.207289
  H 1.220141 -2.058645 -0.458015
  H 0.858964 -1.654475 1.207061
  H -1.219537 -2.059074 0.457712
 18
 11.685763
  C -0.735368 -1.297564 -0.213073
  C 0.735754 -1.297395 0.212914
  C 1.529703 0.000285 0.000137
  C 0.735305 1.297565 -0.213259
  C -0.735651 1.297386 0.213194
  C -1.529685 -0.000152 -0.000019
  H -2.182563 0.136945 -0.863961
  H -2.182775 -0.137339 0.863739
  H -1.231247 2.079769 -0.365643
  H 0.798576 1.594518 -1.261751
  H 1.230681 2.080153 0.365493
  H -0.798982 1.594442 1.261646
  H 2.182332 0.137571 0.864235
  H 2.183044 -0.136655 -0.863477
  H -0.798971 -1.594902 -1.261432
  H 1.231216 -2.079496 -0.366405
  H 0.799430 -1.594918 1.261210
  H -1.230611 -2.079915 0.366100
 18
 8.982794
  C -0.723372 -1.284788 -0.247234
  C 0.723752 -1.284634 0.247076
  C 1.526508 0.000292 0.000131
  C 0.723299 1.284793 -0.247413
  C -0.723641 1.284621 0.247347
  C -1.526489 -0.000145 -0.000018
  H -2.178933 0.160598 -0.860364
  H -2.179149 -0.160969 0.860150
  H -1.237833 2.096805 -0.271675
  H 0.735898 1.531200 -1.310815
  H 1.237264 2.097180 0.271523
  H -0.736284 1.531145 1.310715
  H 2.178704 0.161229 0.860634
  H 2.179418 -0.160279 -0.859895
  H -0.736303 -1.531576 -1.310534
  H 1.237834 -2.096569 -0.272441
  H 0.736742 -1.531627 1.310330
  H -1.237230 -2.096969 0.272131
 18
 6.330571
  C -0.710047 -1.270478 -0.280470
  C 0.710421 -1.270331 0.280315
  C 1.523211 0.000298 0.000124
  C 0.709966 1.270481 -0.280639
  C -0.710303 1.270322 0.280576
  C -1.523195 -0.000137 -0.000016
  H -2.174981 0.184239 -0.856247
  H -2.175190 -0.184583 0.856038
  H -1.239972 2.110064 -0.175619
  H 0.670877 1.464107 -1.354308
  H 1.239403 2.110427 0.175473
  H -0.671243 1.464076 1.354216
  H 2.174746 0.184872 0.856506
  H 2.175459 -0.183894 -0.855795
  H -0.671283 -1.464485 -1.354076
  H 1.240007 -2.109866 -0.176387
  H 0.671702 -1.464556 1.353888
  H -1.239393 -2.110239 0.176072
 18
 3.909256
  C -0.695720 -1.254880 -0.312379
  C 0.696090 -1.254745 0.312230
  C 1.520089 0.000301 0.000114
  C 0.695636 1.254894 -0.312537
  C -0.695967 1.254734 0.312477
  C -1.520067 -0.000132 -0.000013
  H -2.170970 0.207441 -0.851694
  H -2.171172 -0.207767 0.851490
  H -1.237613 2.119602 -0.078106
  H 0.604776 1.393514 -1.391573
  H 1.237039 2.119951 0.077961
  H -0.605120 1.393496 1.391488
  H 2.170736 0.208073 0.851932
  H 2.171440 -0.207079 -0.851258
  H -0.605175 -1.393880 -1.391387
  H 1.237662 -2.119426 -0.078858
  H 0.605574 -1.393976 1.391213
  H -1.237054 -2.119783 0.078549
 18
 1.902605
  C -0.680786 -1.238280 -0.342578
  C 0.681150 -1.238152 0.342434
  C 1.517465 0.000306 0.000102
  C 0.680700 1.238297 -0.342724
  C -0.681027 1.238143 0.342666
  C -1.517447 -0.000125 -0.000013
  H -2.167220 0.229676 -0.846874
  H -2.167421 -0.229982 0.846681
  H -1.230660 2.125641 0.020396
  H 0.538958 1.319552 -1.422094
  H 1.230084 2.125976 -0.020535
  H -0.539280 1.319543 1.422026
  H 2.166990 0.230305 0.847095
  H 2.167684 -0.229299 -0.846472
  H -0.539337 -1.319910 -1.421958
  H 1.230731 -2.125491 0.019662
  H 0.539717 -1.320014 1.421803
  H -1.230118 -2.125825 -0.019967
 18
 0.523831
  C -0.666236 -1.221602 -0.369745
  C 0.666595 -1.221483 0.369608
  C 1.515927 0.000317 0.000101
  C 0.666144 1.221627 -0.369883
  C -0.666471 1.221479 0.369828
  C -1.515911 -0.000121 -0.000005
  H -2.163892 0.249602 -0.842552
  H -2.164128 -0.249875 0.842344
  H -1.219313 2.128935 0.117857
  H 0.476207 1.242803 -1.444744
  H 1.218735 2.129264 -0.117991
  H -0.476495 1.242803 1.444683
  H 2.163685 0.250234 0.842754
  H 2.164360 -0.249205 -0.842156
  H -0.476563 -1.243166 -1.444641
  H 1.219404 -2.128814 0.117101
  H 0.476931 -1.243282 1.444504
  H -1.218795 -2.129130 -0.117412
 18
 0.000000
  C -0.651656 -1.204088 -0.395255
  C 0.651975 -1.203949 0.395054
  C 1.515798 0.000361 0.000190
  C 0.651514 1.204130 -0.395358
  C -0.651879 1.203979 0.395292
  C -1.515769 -0.000163 0.000109
  H -2.162307 0.267285 -0.838059
  H -2.162742 -0.267498 0.837966
  H -1.202961 2.129050 0.216246
  H 0.416739 1.164249 -1.460740
  H 1.202305 2.129392 -0.216516
  H -0.416919 1.164331 1.460685
  H 2.162256 0.267980 0.838424
  H 2.162905 -0.266922 -0.837681
  H -0.417008 -1.164727 -1.460754
  H 1.202932 -2.128949 0.215351
  H 0.417397 -1.164820 1.460528
  H -1.202396 -2.129285 -0.215834
