  18
 
 C         -1.5156758877        0.0006661042       -0.0001499522
 C         -0.6511884710        1.2044942560       -0.3951527708
 C          0.6522803376        1.2037445686        0.3953852311
 C          1.5157274061       -0.0005662821       -0.0002156706
 C          0.6511928173       -1.2044364769       -0.3950999690
 C         -0.6523516559       -1.2038817916        0.3952667186
 H         -0.4175406744       -1.1644878820        1.4606635317
 H         -1.2035068982       -2.1288853490        0.2160385878
 H          0.4165227490       -1.1651782027       -1.4605088632
 H          1.2015934450       -2.1297978045       -0.2156121237
 H          2.1629651517       -0.2681453874        0.8373532810
 H          2.1620570468        0.2669018688       -0.8385132663
 H          1.2035390218        2.1287799867        0.2167047953
 H          0.4174108889        1.1638279243        1.4607082512
 H         -1.2017321969        2.1298708624       -0.2159535634
 H         -0.4161998028        1.1649124333       -1.4604980902
 H         -2.1622626662       -0.2664292723       -0.8383761471
 H         -2.1626619056        0.2683879794        0.8375933537
