 18
 0.000000
  C 0.708505 1.339927 -0.000268
  C -0.759917 1.138991 -0.395213
  C -1.369026 -0.013409 0.395296
  C -0.708461 -1.339972 -0.000252
  C 0.759934 -1.138919 -0.395126
  C 1.369000 0.013428 0.395537
  H 2.444450 0.067941 0.216837
  H 1.223888 -0.175527 1.460895
  H 1.320354 -2.058284 -0.215892
  H 0.834910 -0.912829 -1.460484
  H -1.247062 -1.786515 -0.838475
  H -0.774492 -2.036997 0.837574
  H -1.224143 0.175655 1.460660
  H -2.444433 -0.067926 0.216395
  H -0.835029 0.913040 -1.460572
  H -1.320264 2.058363 -0.215833
  H 0.774729 2.037095 0.837420
  H 1.247207 1.786261 -0.838572
 18
 0.017124
  C 0.707570 1.340224 0.011501
  C -0.756115 1.139935 -0.398399
  C -1.376306 -0.010954 0.385517
  C -0.707522 -1.340228 0.011533
  C 0.756162 -1.139875 -0.398329
  C 1.376270 0.010972 0.385701
  H 2.447667 0.068036 0.184656
  H 1.253667 -0.184445 1.452783
  H 1.316459 -2.060099 -0.222429
  H 0.821516 -0.915972 -1.464755
  H -1.249041 -1.808618 -0.812730
  H -0.761012 -2.020160 0.864103
  H -1.253931 0.184527 1.452615
  H -2.447658 -0.068036 0.184266
  H -0.821515 0.916147 -1.464840
  H -1.316381 2.060158 -0.222397
  H 0.761151 2.020297 0.863954
  H 1.249161 1.808432 -0.812820
 18
 0.064419
  C 0.706564 1.340307 0.023373
  C -0.752305 1.140802 -0.401453
  C -1.383538 -0.008662 0.375613
  C -0.706517 -1.340297 0.023401
  C 0.752353 -1.140749 -0.401386
  C 1.383505 0.008685 0.375781
  H 2.450370 0.068511 0.152548
  H 1.283569 -0.193150 1.444083
  H 1.312557 -2.061768 -0.228861
  H 0.807863 -0.919137 -1.468811
  H -1.250584 -1.830279 -0.786505
  H -0.747529 -2.002813 0.890248
  H -1.283818 0.193225 1.443928
  H -2.450358 -0.068509 0.152182
  H -0.807832 0.919287 -1.468892
  H -1.312491 2.061819 -0.228851
  H 0.747633 2.002952 0.890117
  H 1.250700 1.830128 -0.786585
 18
 0.133294
  C 0.705453 1.340168 0.035378
  C -0.748406 1.141452 -0.404636
  C -1.390532 -0.006470 0.365742
  C -0.705409 -1.340149 0.035402
  C 0.748456 -1.141401 -0.404569
  C 1.390501 0.006497 0.365900
  H 2.452472 0.069188 0.121066
  H 1.312930 -0.201871 1.434840
  H 1.308693 -2.063219 -0.235873
  H 0.793791 -0.921806 -1.472842
  H -1.251825 -1.851572 -0.759521
  H -0.733768 -1.984843 0.916072
  H -1.313162 0.201942 1.434690
  H -2.452456 -0.069184 0.120723
  H -0.793743 0.921936 -1.472925
  H -1.308635 2.063265 -0.235884
  H 0.733844 1.984981 0.915960
  H 1.251934 1.851452 -0.759591
 18
 0.219531
  C 0.704252 1.339792 0.047432
  C -0.744598 1.142189 -0.407490
  C -1.397565 -0.004469 0.355644
  C -0.704206 -1.339768 0.047451
  C 0.744653 -1.142139 -0.407426
  C 1.397538 0.004500 0.355796
  H 2.454089 0.070354 0.089236
  H 1.342729 -0.210201 1.424909
  H 1.304888 -2.064692 -0.242231
  H 0.779799 -0.924953 -1.476526
  H -1.252567 -1.872218 -0.732174
  H -0.720206 -1.966311 0.941426
  H -1.342936 0.210273 1.424757
  H -2.454073 -0.070347 0.088901
  H -0.779749 0.925069 -1.476607
  H -1.304838 2.064729 -0.242259
  H 0.720258 1.966445 0.941331
  H 1.252668 1.872123 -0.732235
 18
 0.318030
  C 0.702967 1.339185 0.059512
  C -0.740850 1.142976 -0.410094
  C -1.404541 -0.002646 0.345383
  C -0.702902 -1.339155 0.059528
  C 0.740926 -1.142923 -0.410038
  C 1.404516 0.002678 0.345534
  H 2.455157 0.071958 0.057286
  H 1.372689 -0.218177 1.414333
  H 1.301137 -2.066164 -0.248132
  H 0.765839 -0.928435 -1.479927
  H -1.252899 -1.892230 -0.704425
  H -0.706784 -1.947215 0.966303
  H -1.372862 0.218246 1.414181
  H -2.455123 -0.071963 0.056933
  H -0.765818 0.928544 -1.479996
  H -1.301109 2.066193 -0.248172
  H 0.706805 1.947347 0.966219
  H 1.252987 1.892163 -0.704491
 18
 0.424259
  C 0.701602 1.338339 0.071599
  C -0.737164 1.143811 -0.412450
  C -1.411424 -0.001004 0.334972
  C -0.701489 -1.338303 0.071614
  C 0.737285 -1.143749 -0.412418
  C 1.411396 0.001035 0.335127
  H 2.455638 0.074011 0.025264
  H 1.402748 -0.225773 1.403118
  H 1.297449 -2.067641 -0.253595
  H 0.751920 -0.932248 -1.483053
  H -1.252851 -1.911601 -0.676263
  H -0.693496 -1.927545 0.990702
  H -1.402868 0.225839 1.402954
  H -2.455566 -0.074037 0.024842
  H -0.751983 0.932364 -1.483100
  H -1.297455 2.067639 -0.253638
  H 0.693474 1.927681 0.990623
  H 1.252919 1.911569 -0.676359
 18
 0.533105
  C 0.700154 1.337254 0.083694
  C -0.733507 1.144647 -0.414647
  C -1.418147 0.000475 0.324455
  C -0.699958 -1.337212 0.083718
  C 0.733704 -1.144564 -0.414652
  C 1.418113 -0.000445 0.324625
  H 2.455512 0.076460 -0.006631
  H 1.432693 -0.233044 1.391298
  H 1.293817 -2.069091 -0.258860
  H 0.737955 -0.936216 -1.485957
  H -1.252492 -1.930380 -0.647601
  H -0.680247 -1.907268 1.014664
  H -1.432738 0.233106 1.391114
  H -2.455374 -0.076529 -0.007193
  H -0.738171 0.936359 -1.485983
  H -1.293876 2.069046 -0.258904
  H 0.680168 1.907416 1.014563
  H 1.252528 1.930380 -0.647766
 18
 0.628529
  C 0.698904 1.335925 0.096130
  C -0.728925 1.144753 -0.417966
  C -1.423592 0.002143 0.314448
  C -0.697780 -1.335733 0.095954
  C 0.730027 -1.144415 -0.418211
  C 1.424412 -0.002012 0.314612
  H 2.455258 0.078581 -0.035753
  H 1.460095 -0.241197 1.379308
  H 1.290467 -2.069765 -0.267956
  H 0.722806 -0.937116 -1.489626
  H -1.251776 -1.949002 -0.617448
  H -0.665066 -1.886003 1.038388
  H -1.459240 0.241168 1.379163
  H -2.454207 -0.078523 -0.036445
  H -0.722321 0.937745 -1.489471
  H -1.289694 2.069905 -0.267600
  H 0.665839 1.886159 1.038574
  H 1.252653 1.949264 -0.617376
 18
 0.716379
  C 0.697394 1.334280 0.108674
  C -0.724402 1.144736 -0.421311
  C -1.428893 0.003694 0.304439
  C -0.695523 -1.333994 0.108325
  C 0.726208 -1.144197 -0.421808
  C 1.430413 -0.003518 0.304575
  H 2.454471 0.080973 -0.064286
  H 1.486706 -0.249230 1.366878
  H 1.287043 -2.070346 -0.277598
  H 0.707194 -0.937543 -1.493112
  H -1.250816 -1.967031 -0.586553
  H -0.649671 -1.863963 1.061781
  H -1.485157 0.249057 1.366802
  H -2.452662 -0.080836 -0.065072
  H -0.706179 0.938633 -1.492764
  H -1.285590 2.070640 -0.276777
  H 0.651206 1.864085 1.062205
  H 1.252375 1.967451 -0.586283
 18
 0.808057
  C 0.695826 1.332363 0.121039
  C -0.720490 1.145541 -0.423287
  C -1.434799 0.004842 0.293661
  C -0.693426 -1.332045 0.120530
  C 0.722766 -1.144852 -0.424057
  C 1.436749 -0.004673 0.293790
  H 2.452880 0.084450 -0.095408
  H 1.515807 -0.255936 1.353330
  H 1.283616 -2.071605 -0.283410
  H 0.692908 -0.941045 -1.495613
  H -1.249398 -1.983873 -0.556167
  H -0.635895 -1.841575 1.084452
  H -1.513807 0.255567 1.353309
  H -2.450528 -0.084297 -0.096382
  H -0.691708 0.942562 -1.495081
  H -1.281779 2.071988 -0.282109
  H 0.637924 1.841614 1.085074
  H 1.251381 1.984403 -0.555763
 18
 0.891050
  C 0.694060 1.330129 0.133414
  C -0.716722 1.146395 -0.425101
  C -1.440633 0.005852 0.282759
  C -0.691374 -1.329823 0.132766
  C 0.719222 -1.145590 -0.426130
  C 1.442774 -0.005729 0.282893
  H 2.450511 0.088287 -0.126447
  H 1.544594 -0.262309 1.339210
  H 1.280070 -2.072906 -0.288875
  H 0.678558 -0.944786 -1.497854
  H -1.247861 -1.999980 -0.525342
  H -0.622360 -1.818538 1.106655
  H -1.542419 0.261709 1.339224
  H -2.447860 -0.088156 -0.127646
  H -0.677397 0.946711 -1.497136
  H -1.278062 2.073340 -0.287101
  H 0.624669 1.818476 1.107460
  H 1.250039 2.000530 -0.524825
 18
 0.965697
  C 0.692164 1.327601 0.145745
  C -0.713144 1.147401 -0.426592
  C -1.446437 0.006710 0.271682
  C -0.689404 -1.327327 0.144956
  C 0.715652 -1.146521 -0.427883
  C 1.448552 -0.006666 0.271840
  H 2.447380 0.092545 -0.157689
  H 1.573362 -0.268211 1.324448
  H 1.276425 -2.074343 -0.293506
  H 0.664383 -0.949157 -1.499753
  H -1.246215 -2.015208 -0.494308
  H -0.609311 -1.794980 1.128319
  H -1.571260 0.267341 1.324474
  H -2.444591 -0.092466 -0.159144
  H -0.663473 0.951464 -1.498864
  H -1.274474 2.074811 -0.291252
  H 0.611693 1.794791 1.129273
  H 1.248388 2.015746 -0.493683
 18
 1.041474
  C 0.690627 1.324918 0.157469
  C -0.710175 1.149445 -0.426342
  C -1.452623 0.007176 0.260007
  C -0.687773 -1.324694 0.156530
  C 0.712696 -1.148457 -0.427983
  C 1.454546 -0.007235 0.260218
  H 2.443030 0.097719 -0.191433
  H 1.604831 -0.272418 1.308557
  H 1.272826 -2.076653 -0.293056
  H 0.652279 -0.957632 -1.500577
  H -1.244549 -2.028852 -0.464780
  H -0.598800 -1.771875 1.148649
  H -1.602727 0.271233 1.308602
  H -2.440141 -0.097776 -0.193415
  H -0.652112 0.960342 -1.499465
  H -1.271211 2.077025 -0.290358
  H 0.600932 1.771525 1.149777
  H 1.246471 2.029468 -0.464138
 18
 1.097849
  C 0.688671 1.321857 0.169530
  C -0.706962 1.150878 -0.426991
  C -1.458252 0.007710 0.248617
  C -0.685979 -1.321707 0.168446
  C 0.709246 -1.149825 -0.428925
  C 1.459843 -0.007888 0.248883
  H 2.438153 0.102825 -0.223154
  H 1.633814 -0.277135 1.292495
  H 1.269087 -2.078445 -0.295408
  H 0.638816 -0.963743 -1.501724
  H -1.242822 -2.042185 -0.433781
  H -0.587081 -1.747610 1.168978
  H -1.632025 0.275628 1.292538
  H -2.435368 -0.102991 -0.225526
  H -0.639314 0.966815 -1.500427
  H -1.267872 2.078764 -0.292248
  H 0.588929 1.747095 1.170254
  H 1.244412 2.042782 -0.433073
 18
 1.154393
  C 0.687225 1.318633 0.180932
  C -0.704122 1.153157 -0.426197
  C -1.463978 0.008071 0.236954
  C -0.684587 -1.318561 0.179658
  C 0.706234 -1.151983 -0.428622
  C 1.465115 -0.008393 0.237250
  H 2.432121 0.108372 -0.256334
  H 1.664426 -0.280578 1.275524
  H 1.265173 -2.081029 -0.293991
  H 0.626828 -0.973040 -1.502039
  H -1.241508 -2.053971 -0.404140
  H -0.577651 -1.723802 1.187986
  H -1.662702 0.278661 1.275667
  H -2.429368 -0.108729 -0.259265
  H -0.628614 0.976517 -1.500426
  H -1.264696 2.081158 -0.290281
  H 0.578922 1.723044 1.189444
  H 1.242471 2.054726 -0.403439
 18
 1.193449
  C 0.685722 1.315136 0.192401
  C -0.701171 1.155335 -0.425524
  C -1.469293 0.008380 0.225285
  C -0.683026 -1.315124 0.190926
  C 0.703229 -1.154029 -0.428433
  C 1.470098 -0.008829 0.225633
  H 2.425454 0.114196 -0.288859
  H 1.694241 -0.283840 1.258055
  H 1.261348 -2.083509 -0.293106
  H 0.614579 -0.981869 -1.502256
  H -1.240063 -2.065141 -0.373841
  H -0.567927 -1.699220 1.206685
  H -1.692500 0.281538 1.258288
  H -2.422599 -0.114722 -0.292327
  H -0.617486 0.985734 -1.500346
  H -1.261482 2.083452 -0.288861
  H 0.568753 1.698250 1.208309
  H 1.240522 2.066071 -0.373129
 18
 1.212669
  C 0.684151 1.311397 0.203796
  C -0.698349 1.157601 -0.424641
  C -1.474405 0.008561 0.213526
  C -0.681474 -1.311454 0.202106
  C 0.700278 -1.156180 -0.428042
  C 1.474782 -0.009149 0.213951
  H 2.417945 0.120405 -0.321201
  H 1.723701 -0.286626 1.239996
  H 1.257560 -2.086043 -0.291770
  H 0.602429 -0.991020 -1.502200
  H -1.238628 -2.075534 -0.343337
  H -0.558509 -1.674133 1.224880
  H -1.722032 0.283937 1.240307
  H -2.415058 -0.121115 -0.325223
  H -0.606564 0.995232 -1.499995
  H -1.258423 2.085771 -0.287010
  H 0.558769 1.672952 1.226670
  H 1.238468 2.076652 -0.342609
 18
 1.203815
  C 0.681803 1.307010 0.216088
  C -0.695109 1.159094 -0.425264
  C -1.478939 0.008911 0.201899
  C -0.679571 -1.307185 0.214272
  C 0.696490 -1.157674 -0.428916
  C 1.478954 -0.009629 0.202269
  H 2.410268 0.126610 -0.351577
  H 1.750257 -0.290408 1.221718
  H 1.253780 -2.087783 -0.294380
  H 0.588532 -0.996513 -1.502691
  H -1.236577 -2.085631 -0.310601
  H -0.546803 -1.647127 1.243586
  H -1.749250 0.287370 1.222112
  H -2.407698 -0.127325 -0.355531
  H -0.592991 1.001117 -1.500303
  H -1.254913 2.087601 -0.288969
  H 0.547034 1.645757 1.245527
  H 1.236159 2.086543 -0.309694
 18
 1.168022
  C 0.679342 1.302188 0.228609
  C -0.691726 1.160593 -0.425999
  C -1.483159 0.009216 0.190038
  C -0.677463 -1.302468 0.226679
  C 0.692654 -1.159178 -0.429853
  C 1.482988 -0.010032 0.190327
  H 2.401958 0.133278 -0.381953
  H 1.776511 -0.293986 1.202739
  H 1.250033 -2.089492 -0.297347
  H 0.574370 -1.001680 -1.503052
  H -1.234245 -2.095018 -0.276893
  H -0.534682 -1.618867 1.262110
  H -1.776120 0.290644 1.203191
  H -2.399627 -0.133941 -0.385705
  H -0.578799 1.006671 -1.500496
  H -1.251206 2.089475 -0.291251
  H 0.535147 1.617357 1.264216
  H 1.233800 2.095680 -0.275772
 18
 1.114195
  C 0.676605 1.296999 0.241186
  C -0.688360 1.161953 -0.426946
  C -1.487075 0.009456 0.178279
  C -0.675260 -1.297408 0.239152
  C 0.688668 -1.160577 -0.430932
  C 1.486645 -0.010372 0.178460
  H 2.393140 0.140216 -0.411438
  H 1.801565 -0.297410 1.183573
  H 1.246261 -2.091074 -0.300967
  H 0.559977 -1.006075 -1.503337
  H -1.231691 -2.103561 -0.242750
  H -0.522293 -1.589903 1.280088
  H -1.802012 0.293774 1.184051
  H -2.391245 -0.140794 -0.414830
  H -0.564227 1.011412 -1.500616
  H -1.247472 2.091266 -0.294166
  H 0.523006 1.588265 1.282373
  H 1.231210 2.103880 -0.241359
 18
 1.048672
  C 0.673863 1.291501 0.253583
  C -0.685134 1.163487 -0.427541
  C -1.490841 0.009599 0.166459
  C -0.673157 -1.292054 0.251426
  C 0.684720 -1.162156 -0.431690
  C 1.490008 -0.010625 0.166524
  H 2.383474 0.147486 -0.440910
  H 1.826469 -0.300291 1.163901
  H 1.242347 -2.092863 -0.303786
  H 0.545823 -1.011075 -1.503286
  H -1.229234 -2.111101 -0.208632
  H -0.510498 -1.560513 1.297319
  H -1.827811 0.296352 1.164420
  H -2.382162 -0.147994 -0.443944
  H -0.550122 1.016712 -1.500358
  H -1.243801 2.093203 -0.296275
  H 0.511258 1.558719 1.299801
  H 1.228533 2.111115 -0.206964
 18
 0.970711
  C 0.670987 1.285593 0.266162
  C -0.681857 1.165048 -0.428055
  C -1.494370 0.009590 0.154383
  C -0.670845 -1.286285 0.263864
  C 0.680825 -1.163756 -0.432317
  C 1.493210 -0.010694 0.154359
  H 2.372942 0.155375 -0.470610
  H 1.851494 -0.302700 1.143438
  H 1.238419 -2.094685 -0.306489
  H 0.531512 -1.016174 -1.502976
  H -1.226476 -2.117916 -0.173529
  H -0.498513 -1.529888 1.314220
  H -1.853617 0.298512 1.143953
  H -2.372171 -0.155774 -0.473278
  H -0.535727 1.022023 -1.499873
  H -1.240068 2.095155 -0.298373
  H 0.499320 1.527957 1.316928
  H 1.225618 2.117659 -0.171538
 18
 0.885653
  C 0.668085 1.279698 0.278597
  C -0.678765 1.166814 -0.428581
  C -1.497788 0.009589 0.142438
  C -0.668371 -1.280519 0.276139
  C 0.677354 -1.165532 -0.432923
  C 1.496452 -0.010715 0.142344
  H 2.362362 0.163516 -0.499706
  H 1.876217 -0.304808 1.122972
  H 1.234904 -2.096820 -0.309231
  H 0.517655 -1.021338 -1.502654
  H -1.223607 -2.124277 -0.138453
  H -0.486565 -1.499231 1.330660
  H -1.878862 0.300455 1.123450
  H -2.362048 -0.163719 -0.502013
  H -0.521565 1.027313 -1.499284
  H -1.236592 2.097423 -0.300667
  H 0.487428 1.497112 1.333438
  H 1.222644 2.123780 -0.136042
 18
 0.797170
  C 0.665187 1.274431 0.291065
  C -0.676501 1.169834 -0.428889
  C -1.502023 0.010161 0.130217
  C -0.665785 -1.275444 0.288473
  C 0.675173 -1.168456 -0.433372
  C 1.500603 -0.011204 0.130050
  H 2.352450 0.171576 -0.529736
  H 1.902690 -0.307131 1.102115
  H 1.232805 -2.100467 -0.311047
  H 0.505314 -1.028315 -1.502704
  H -1.221010 -2.131520 -0.103303
  H -0.474754 -1.469282 1.348167
  H -1.905550 0.302747 1.102571
  H -2.352666 -0.171403 -0.531899
  H -0.508616 1.034490 -1.498596
  H -1.234113 2.101296 -0.302162
  H 0.475635 1.466643 1.349989
  H 1.219820 2.130678 -0.100299
 18
 0.705109
  C 0.662976 1.268296 0.302411
  C -0.673917 1.172497 -0.427347
  C -1.504845 0.009814 0.117850
  C -0.663453 -1.269412 0.299644
  C 0.672941 -1.171019 -0.431916
  C 1.503548 -0.010746 0.117680
  H 2.339144 0.180514 -0.560245
  H 1.929113 -0.306676 1.079637
  H 1.230124 -2.103018 -0.307443
  H 0.494803 -1.038002 -1.500875
  H -1.218172 -2.135400 -0.070930
  H -0.465764 -1.439901 1.362607
  H -1.931817 0.302410 1.080265
  H -2.339467 -0.180052 -0.562431
  H -0.497601 1.044255 -1.496523
  H -1.231041 2.103950 -0.298503
  H 0.466675 1.436904 1.364171
  H 1.217042 2.134373 -0.067368
 18
 0.610451
  C 0.661115 1.261414 0.313614
  C -0.670983 1.175065 -0.424869
  C -1.506849 0.008922 0.104997
  C -0.661174 -1.262566 0.310624
  C 0.670580 -1.173456 -0.429418
  C 1.505905 -0.009687 0.104843
  H 2.323351 0.190354 -0.591828
  H 1.956150 -0.304593 1.055311
  H 1.227098 -2.105103 -0.300938
  H 0.484858 -1.049267 -1.497965
  H -1.215097 -2.137399 -0.038800
  H -0.457932 -1.409613 1.375699
  H -1.958329 0.300552 1.056167
  H -2.323465 -0.189553 -0.593930
  H -0.486966 1.055467 -1.493732
  H -1.227464 2.106102 -0.292215
  H 0.458948 1.406338 1.377551
  H 1.214310 2.136316 -0.034613
 18
 0.518560
  C 0.659960 1.254930 0.323849
  C -0.668255 1.177987 -0.421535
  C -1.508222 0.007612 0.092529
  C -0.659368 -1.255966 0.320566
  C 0.668492 -1.176317 -0.426060
  C 1.508044 -0.008186 0.092399
  H 2.306848 0.200235 -0.622488
  H 1.982635 -0.300999 1.031198
  H 1.224303 -2.107184 -0.291631
  H 0.476634 -1.062328 -1.494466
  H -1.212522 -2.138012 -0.009792
  H -0.452222 -1.381598 1.386703
  H -1.983732 0.297167 1.032144
  H -2.306274 -0.199065 -0.624342
  H -0.477970 1.068416 -1.490364
  H -1.224159 2.108159 -0.283132
  H 0.453548 1.378141 1.389309
  H 1.212430 2.137282 -0.004972
 18
 0.432178
  C 0.658462 1.249667 0.331438
  C -0.666766 1.180658 -0.419030
  C -1.509764 0.005216 0.079801
  C -0.658005 -1.249629 0.331732
  C 0.666931 -1.180437 -0.419502
  C 1.509676 -0.005463 0.080132
  H 2.288672 0.210357 -0.653553
  H 2.009227 -0.293163 1.007199
  H 1.222499 -2.109554 -0.275157
  H 0.470523 -1.080277 -1.488277
  H -1.209977 -2.138553 0.020142
  H -0.448624 -1.353398 1.398593
  H -2.010113 0.292656 1.006760
  H -2.287884 -0.211029 -0.655108
  H -0.471437 1.081392 -1.488055
  H -1.222551 2.109521 -0.274068
  H 0.449232 1.354107 1.397913
  H 1.210050 2.138219 0.018953
 18
 0.347566
  C 0.658002 1.244303 0.340206
  C -0.665458 1.185207 -0.413923
  C -1.511444 0.003886 0.067431
  C -0.657629 -1.244213 0.340313
  C 0.665608 -1.185089 -0.414239
  C 1.511417 -0.004062 0.067763
  H 2.270528 0.219551 -0.684508
  H 2.035635 -0.287704 0.982516
  H 1.220597 -2.112911 -0.260412
  H 0.465351 -1.097719 -1.483540
  H -1.209357 -2.138564 0.044720
  H -0.446962 -1.329186 1.408328
  H -2.035927 0.287337 0.982051
  H -2.269660 -0.220015 -0.685558
  H -0.466171 1.098396 -1.483504
  H -1.220837 2.112798 -0.259890
  H 0.447076 1.329633 1.408169
  H 1.209384 2.138649 0.044007
 18
 0.260538
  C 0.656804 1.237783 0.350129
  C -0.663521 1.189041 -0.410075
  C -1.512878 0.002967 0.054855
  C -0.656563 -1.237710 0.350127
  C 0.663686 -1.188958 -0.410256
  C 1.512873 -0.003030 0.055084
  H 2.251801 0.228809 -0.714593
  H 2.060898 -0.283554 0.956750
  H 1.218167 -2.115909 -0.250006
  H 0.457786 -1.111929 -1.479358
  H -1.208028 -2.138379 0.073808
  H -0.442402 -1.301086 1.418956
  H -2.060905 0.283410 0.956521
  H -2.251263 -0.229023 -0.715234
  H -0.458268 1.112275 -1.479351
  H -1.218322 2.115834 -0.249870
  H 0.442295 1.301239 1.418887
  H 1.207988 2.138522 0.073566
 18
 0.174715
  C 0.655466 1.230727 0.360363
  C -0.661335 1.192691 -0.406481
  C -1.514018 0.002081 0.042172
  C -0.655376 -1.230681 0.360273
  C 0.661481 -1.192641 -0.406512
  C 1.514026 -0.002034 0.042282
  H 2.232315 0.238170 -0.744182
  H 2.085469 -0.279488 0.930276
  H 1.215449 -2.118804 -0.240627
  H 0.449470 -1.125317 -1.475139
  H -1.206574 -2.137530 0.104361
  H -0.437196 -1.271533 1.429364
  H -2.085292 0.279551 0.930256
  H -2.232147 -0.238136 -0.744399
  H -0.449563 1.125342 -1.475170
  H -1.215489 2.118799 -0.240821
  H 0.436951 1.271434 1.429391
  H 1.206512 2.137683 0.104542
 18
 0.107428
  C 0.654110 1.223343 0.370449
  C -0.659472 1.196683 -0.402522
  C -1.514910 0.001314 0.029255
  C -0.654345 -1.223379 0.370209
  C 0.659554 -1.196679 -0.402213
  C 1.514949 -0.001052 0.029129
  H 2.212090 0.247574 -0.773696
  H 2.109468 -0.274854 0.903162
  H 1.213296 -2.121526 -0.228878
  H 0.442223 -1.140462 -1.470486
  H -1.205408 -2.135488 0.132770
  H -0.433266 -1.242925 1.439368
  H -2.109037 0.275329 0.903538
  H -2.212758 -0.247051 -0.773131
  H -0.441459 1.139888 -1.470619
  H -1.213059 2.121697 -0.229668
  H 0.432844 1.242357 1.439568
  H 1.205326 2.135555 0.133723
 18
 0.000000
  C 0.650868 1.204681 0.395254
  C -0.652551 1.203557 -0.395312
  C -1.515767 -0.001015 0.000120
  C -0.650950 -1.204628 0.395083
  C 0.652656 -1.203545 -0.395208
  C 1.515746 0.001197 0.000069
  H 2.162393 0.269091 -0.837888
  H 2.162673 -0.265772 0.838115
  H 1.204172 -2.128326 -0.215964
  H 0.417956 -1.164246 -1.460629
  H -1.201095 -2.130159 0.215512
  H -0.416296 -1.165299 1.460515
  H -2.162432 0.266045 0.838282
  H -2.162598 -0.268826 -0.837633
  H -0.417599 1.163897 -1.460643
  H -1.204040 2.128416 -0.216488
  H 0.415950 1.164995 1.460614
  H 1.201058 2.130277 0.216166
 18
 0.000006
  C 0.650842 1.204621 0.395315
  C -0.652547 1.203536 -0.395286
  C -1.515765 -0.001053 0.000040
  C -0.650933 -1.204561 0.395141
  C 0.652649 -1.203532 -0.395188
  C 1.515740 0.001235 -0.000014
  H 2.162244 0.269195 -0.838057
  H 2.162807 -0.265704 0.837935
  H 1.204176 -2.128306 -0.215924
  H 0.417906 -1.164283 -1.460604
  H -1.201064 -2.130116 0.215717
  H -0.416251 -1.165077 1.460552
  H -2.162555 0.265970 0.838078
  H -2.162421 -0.268922 -0.837759
  H -0.417550 1.163920 -1.460598
  H -1.204042 2.128375 -0.216450
  H 0.415891 1.164780 1.460651
  H 1.201021 2.130246 0.216380
