  18
 
 C         -1.2728185238       -0.6888677673       -0.2416209617
 C         -1.2330645954        0.7578477257        0.2416641575
 C          0.0397945791        1.4466565023       -0.2416861214
 C          1.2728648833        0.6889070468        0.2416610405
 C          1.2330230348       -0.7577679563       -0.2416147288
 C         -0.0397890494       -1.4467490029        0.2416045202
 H         -0.0406541992       -1.4794324536        1.3338377902
 H         -0.0680693265       -2.4757735577       -0.1236394593
 H          1.2607651027       -0.7746715532       -1.3338753487
 H          2.1100987243       -1.2967938932        0.1234333326
 H          1.3013387976        0.7043443024        1.3339477405
 H          2.1782444210        1.1789750241       -0.1233504388
 H          0.0405412495        1.4789050829       -1.3339331414
 H          0.0680863060        2.4757450172        0.1232428280
 H         -1.2606745834        0.7747455028        1.3338889975
 H         -2.1101296750        1.2969310826       -0.1232803238
 H         -1.3014177679       -0.7045263030       -1.3338691117
 H         -2.1782521318       -1.1787646247        0.1235029175
