18

C         -1.42059        0.32798       -0.22055
C         -0.99079       -1.06496        0.23414
C          0.42516       -1.39045       -0.23359
C          1.41996       -0.32808        0.22623
C          0.99446        1.06588       -0.22741
C         -0.42546        1.39336        0.23081
H         -2.41457        0.55707        0.18054
H         -1.50452        0.34555       -1.31413
H         -1.69074       -1.81365       -0.15344
H         -1.03516       -1.12043        1.32884
H          0.44219       -1.45748       -1.32822
H          0.72602       -2.37082        0.15224
H          2.41657       -0.55788       -0.16811
H          1.49594       -0.34832        1.32046
H          1.04706        1.12499       -1.32177
H          1.69167        1.81267        0.16780
H         -0.72489        2.37058       -0.16285
H         -0.44487        1.46853        1.32500
