  18
 
 C          1.5155659607       -0.0001108216        0.0002902406
 C          0.6516002673       -1.2043780905        0.3951320892
 C         -0.6518124336       -1.2040075240       -0.3954683117
 C         -1.5156331041        0.0000220664        0.0003267101
 C         -0.6516374313        1.2043560475        0.3950546795
 C          0.6519035826        1.2041043079       -0.3953503151
 H          0.4172300020        1.1643450405       -1.4607621322
 H          1.2028232255        2.1292939564       -0.2163359080
 H         -0.4169220584        1.1652716976        1.4604725623
 H         -1.2023710059        2.1295138766        0.2154793093
 H         -2.1629572385        0.2673589972       -0.8372483201
 H         -2.1618775482       -0.2675390692        0.8386845957
 H         -1.2027220438       -2.1292536316       -0.2167977998
 H         -0.4168875050       -1.1640245136       -1.4608053717
 H          1.2023831999       -2.1295892568        0.2158072756
 H          0.4166586138       -1.1650548034        1.4604962325
 H          2.1619855386        0.2672946049        0.8385143745
 H          2.1628136269       -0.2674498914       -0.8373271701
