18
cyclohexane.twistboat.xtb.xyz - modified
C      -1.29638958     -0.78139326     -0.07776993
C      -1.16158393      0.70567984     -0.42843754
C      -0.08166912      1.35687349      0.42811130
C       1.29635067      0.78146789      0.07804221
C       1.19651348     -0.68472207     -0.36114935
C       0.04681657     -1.37784555      0.36116113
H       0.18044082     -1.25145480      1.43721786
H       0.06119228     -2.44940743      0.15368739
H       1.02225086     -0.74363663     -1.43719882
H       2.13738710     -1.19784615     -0.15388366
H       1.95061891      0.86365434      0.94824262
H       1.74847714      1.36617244     -0.72554819
H      -0.08029141      2.43797433      0.27742289
H      -0.30917464      1.17377742      1.47998596
H      -2.11825335      1.20936932     -0.27819846
H      -0.89319038      0.82088359     -1.48030131
H      -1.67498947     -1.32178343     -0.94764230
H      -2.02433942     -0.90775608      0.72607310
