 18
 0.000000
  C 0.233150 1.428442 0.241430
  C -1.120548 0.916069 -0.241529
  C -1.353614 -0.512313 0.241676
  C -0.233158 -1.428302 -0.241755
  C 1.120439 -0.916174 0.241651
  C 1.353728 0.512254 -0.241482
  H 2.316506 0.876524 0.123905
  H 1.384451 0.523874 -1.333696
  H 1.917501 -1.567760 -0.123402
  H 1.145423 -0.936779 1.333849
  H -0.399056 -2.444465 0.123049
  H -0.238411 -1.460048 -1.333964
  H -2.316513 -0.876794 -0.123111
  H -1.383716 -0.523799 1.333909
  H -1.917479 1.567640 0.123801
  H -1.146089 0.936561 -1.333722
  H 0.399000 2.444325 -0.124130
  H 0.238422 1.461005 1.333627
 18
 0.225367
  C 0.608743 1.318742 0.234123
  C -0.831487 1.186317 -0.249110
  C -1.443830 -0.117550 0.249427
  C -0.626332 -1.310367 -0.234449
  C 0.827458 -1.197748 0.216336
  C 1.450182 0.127703 -0.216300
  H 2.452330 0.211063 0.210932
  H 1.549713 0.144137 -1.304348
  H 1.403173 -2.022370 -0.210644
  H 0.878053 -1.284685 1.304413
  H -1.058453 -2.234778 0.155744
  H -0.665087 -1.358222 -1.325454
  H -2.473097 -0.205029 -0.105790
  H -1.465959 -0.112962 1.341948
  H -1.421162 2.034238 0.106621
  H -0.849706 1.200696 -1.341621
  H 1.044217 2.241270 -0.156804
  H 0.621281 1.379806 1.325086
 18
 0.845312
  C 0.728307 1.263558 0.223441
  C -0.717647 1.258922 -0.258269
  C -1.448753 0.026958 0.258844
  C -0.760571 -1.244391 -0.223731
  C 0.708534 -1.281365 0.191079
  C 1.464121 -0.008569 -0.191335
  H 2.442767 -0.023494 0.294551
  H 1.631104 0.004485 -1.271131
  H 1.190242 -2.133388 -0.294782
  H 0.776985 -1.434173 1.270883
  H -1.271944 -2.115225 0.193294
  H -0.833080 -1.305519 -1.312392
  H -2.485331 0.038260 -0.085664
  H -1.458698 0.042551 1.351481
  H -1.223777 2.163363 0.086905
  H -0.736794 1.260601 -1.350890
  H 1.247705 2.129320 -0.194228
  H 0.747918 1.356924 1.312051
 18
 1.771533
  C 0.811845 1.218767 0.212319
  C -0.631355 1.303787 -0.268103
  C -1.442347 0.133250 0.269096
  C -0.856522 -1.187953 -0.212616
  C 0.616592 -1.336985 0.165094
  C 1.468141 -0.108393 -0.165751
  H 2.413323 -0.191835 0.376221
  H 1.701298 -0.105131 -1.233226
  H 1.026273 -2.192709 -0.377112
  H 0.695573 -1.556612 1.232528
  H -1.418607 -2.013871 0.229895
  H -0.964182 -1.257484 -1.297880
  H -2.479594 0.216839 -0.063362
  H -1.437527 0.158123 1.361594
  H -1.073397 2.245504 0.065317
  H -0.653924 1.291214 -1.360587
  H 1.387600 2.034861 -0.230853
  H 0.840169 1.344192 1.297534
 18
 2.929609
  C 0.880740 1.177587 0.200369
  C -0.556550 1.336468 -0.277398
  C -1.430389 0.222501 0.278829
  C -0.934971 -1.135403 -0.200668
  C 0.536141 -1.379750 0.138490
  C 1.467274 -0.193333 -0.139573
  H 2.372934 -0.330667 0.455962
  H 1.764027 -0.205886 -1.190986
  H 0.884379 -2.226650 -0.457515
  H 0.619288 -1.665397 1.189763
  H -1.534325 -1.920133 0.267143
  H -1.078615 -1.210057 -1.281459
  H -2.464266 0.366988 -0.043185
  H -1.411790 0.255415 1.370971
  H -0.942210 2.306125 0.045895
  H -0.585340 1.311540 -1.369524
  H 1.500082 1.946220 -0.268124
  H 0.920442 1.334801 1.281118
 18
 4.232669
  C 0.940979 1.137706 0.188084
  C -0.488248 1.361266 -0.286773
  C -1.414286 0.301398 0.288619
  C -1.002462 -1.084596 -0.188382
  C 0.462132 -1.413979 0.111456
  C 1.462508 -0.269746 -0.112941
  H 2.324087 -0.451050 0.533597
  H 1.820015 -0.303443 -1.144658
  H 0.756312 -2.243302 -0.535770
  H 0.543887 -1.764387 1.142924
  H -1.630724 -1.830853 0.303681
  H -1.182091 -1.160642 -1.263693
  H -2.442384 0.500092 -0.022954
  H -1.381255 0.341297 1.380169
  H -0.821997 2.353279 0.026380
  H -0.524846 1.324460 -1.378319
  H 1.596043 1.860071 -0.304690
  H 0.993954 1.325548 1.263375
 18
 5.595775
  C 0.995314 1.098014 0.175636
  C -0.424157 1.380190 -0.296427
  C -1.394729 0.373016 0.298639
  C -1.062009 -1.034602 -0.175933
  C 0.392310 -1.441593 0.084100
  C 1.454186 -0.340529 -0.085945
  H 2.267989 -0.558039 0.609056
  H 1.869461 -0.400266 -1.094377
  H 0.638442 -2.246469 -0.611751
  H 0.467801 -1.855234 1.092155
  H -1.713262 -1.744631 0.339141
  H -1.277207 -1.108486 -1.244838
  H -2.415262 0.621412 -0.002044
  H -1.346235 0.418821 1.389330
  H -0.708848 2.390653 0.006104
  H -0.469821 1.331613 -1.387129
  H 1.680541 1.774748 -0.340171
  H 1.063171 1.315141 1.244553
 18
 6.942679
  C 1.045341 1.057843 0.163011
  C -0.362989 1.394419 -0.306262
  C -1.372194 0.439031 0.308783
  C -1.115269 -0.985034 -0.163305
  C 0.325522 -1.463662 0.056455
  C 1.442495 -0.407264 -0.058602
  H 2.205319 -0.654406 0.682345
  H 1.911945 -0.497615 -1.040410
  H 0.528980 -2.238366 -0.685460
  H 0.390426 -1.938381 1.037740
  H -1.784967 -1.660699 0.373661
  H -1.365176 -1.053566 -1.224959
  H -2.383600 0.733897 0.019338
  H -1.307402 0.489615 1.398357
  H -0.600568 2.420212 -0.014747
  H -0.418864 1.334354 -1.395847
  H 1.756372 1.689207 -0.374721
  H 1.129655 1.302692 1.224711
 18
 8.211860
  C 1.092238 1.016671 0.150072
  C -0.303835 1.404943 -0.315697
  C -1.347247 0.500448 0.318466
  C -1.163294 -0.935875 -0.150369
  C 0.261169 -1.480939 0.028674
  C 1.427573 -0.470980 -0.031063
  H 2.136622 -0.742009 0.753205
  H 1.946431 -0.596121 -0.983477
  H 0.427125 -2.220570 -0.756619
  H 0.311710 -2.013454 0.980434
  H -1.847528 -1.578572 0.408034
  H -1.446688 -0.996807 -1.204000
  H -2.347784 0.839347 0.039611
  H -1.266480 0.554747 1.406742
  H -0.495688 2.443143 -0.034585
  H -0.370956 1.334816 -1.403999
  H 1.825185 1.602441 -0.409133
  H 1.195145 1.287369 1.203775
 18
 9.337727
  C 1.136434 0.974165 0.136953
  C -0.246175 1.412063 -0.325037
  C -1.319924 0.558034 0.327988
  C -1.206828 -0.886787 -0.137254
  C 0.198722 -1.493679 0.000828
  C 1.409256 -0.532134 -0.003392
  H 2.062064 -0.821762 0.821590
  H 1.972998 -0.695881 -0.923626
  H 0.332220 -2.194041 -0.825203
  H 0.231571 -2.081024 0.920285
  H -1.902307 -1.497953 0.442014
  H -1.522574 -0.938001 -1.182094
  H -2.308124 0.939054 0.059702
  H -1.222908 0.614912 1.414743
  H -0.393303 2.460289 -0.054355
  H -0.325375 1.332672 -1.411832
  H 1.888013 1.513951 -0.443154
  H 1.259880 1.268891 1.181896
 18
 10.266735
  C 1.178278 0.930037 0.123649
  C -0.189615 1.416031 -0.334405
  C -1.290275 0.612320 0.337468
  C -1.246395 -0.837591 -0.123960
  C 0.137879 -1.502103 -0.026992
  C 1.387455 -0.591042 0.024322
  H 1.981889 -0.894252 0.887373
  H 1.991391 -0.796870 -0.861041
  H 0.243877 -2.159596 -0.891059
  H 0.150049 -2.141258 0.857490
  H -1.950223 -1.418618 0.475648
  H -1.593408 -0.877182 -1.159255
  H -2.264763 1.033956 0.079988
  H -1.176530 0.670573 1.422460
  H -0.292709 2.472196 -0.074437
  H -0.281676 1.327934 -1.419449
  H 1.945528 1.423223 -0.476835
  H 1.324204 1.246940 1.159066
 18
 10.949875
  C 1.217900 0.884058 0.110039
  C -0.133947 1.416793 -0.344265
  C -1.258087 0.663698 0.347354
  C -1.282358 -0.788038 -0.110367
  C 0.078423 -1.506272 -0.054640
  C 1.362020 -0.647818 0.051949
  H 1.896432 -0.959597 0.950331
  H 2.001464 -0.898992 -0.795784
  H 0.161645 -2.117967 -0.953974
  H 0.067227 -2.194361 0.792145
  H -1.992102 -1.340380 0.508876
  H -1.659644 -0.813965 -1.135344
  H -2.217647 1.124758 0.101708
  H -1.126358 0.721969 1.430222
  H -0.193397 2.479130 -0.096097
  H -0.239838 1.319773 -1.427185
  H 1.998195 1.329963 -0.510119
  H 1.388001 1.221405 1.135154
 18
 11.401342
  C 1.256267 0.835607 0.095033
  C -0.078481 1.415477 -0.352971
  C -1.224355 0.712609 0.355951
  C -1.314985 -0.738782 -0.095382
  C 0.020406 -1.507063 -0.081175
  C 1.333506 -0.703091 0.078605
  H 1.807002 -1.018653 1.009093
  H 2.001371 -1.002010 -0.730652
  H 0.085441 -2.070988 -1.012492
  H -0.016227 -2.238916 0.727131
  H -2.026852 -1.262917 0.545381
  H -1.722379 -0.751857 -1.108887
  H -2.166983 1.211853 0.119668
  H -1.076891 0.770781 1.436759
  H -0.094437 2.481490 -0.114233
  H -0.198922 1.313040 -1.433840
  H 2.045522 1.232270 -0.546665
  H 1.455075 1.191092 1.108653
 18
 11.536085
  C 1.345002 0.688474 -0.087754
  C 1.193210 -0.759520 0.359261
  C 0.026112 -1.413337 -0.362366
  C -1.288227 -0.789596 0.088139
  C -1.299802 0.751486 0.111616
  C 0.035462 1.501102 -0.108874
  H -0.021680 2.014348 -1.069590
  H 0.102706 2.275298 0.656857
  H -1.707370 1.066156 1.073138
  H -1.996309 1.098515 -0.653031
  H -2.087826 -1.138774 -0.568097
  H -1.509452 -1.160672 1.091354
  H 0.001695 -2.481665 -0.135044
  H 0.155694 -1.304103 -1.441408
  H 2.117512 -1.294676 0.129361
  H 1.033909 -0.815956 1.438376
  H 2.059754 1.187594 0.569461
  H 1.776664 0.686566 -1.091121
 18
 11.372553
  C 1.373431 0.632986 -0.078626
  C 1.154029 -0.805956 0.370811
  C -0.027506 -1.406687 -0.373986
  C -1.319830 -0.739371 0.079025
  C -1.260062 0.799500 0.142992
  C 0.093260 1.489268 -0.140206
  H 0.041841 1.947021 -1.129164
  H 0.193266 2.306972 0.575392
  H -1.599411 1.108622 1.132692
  H -1.980895 1.200377 -0.571443
  H -2.128945 -1.039880 -0.589565
  H -1.564396 -1.124793 1.071339
  H -0.095377 -2.476923 -0.165287
  H 0.117316 -1.284279 -1.449419
  H 2.059436 -1.379682 0.159463
  H 0.971228 -0.854005 1.446353
  H 2.092253 1.109299 0.590992
  H 1.828762 0.606894 -1.071113
 18
 11.006199
  C 1.399318 0.577692 -0.069488
  C 1.115098 -0.850998 0.377998
  C -0.082873 -1.399737 -0.381177
  C -1.350920 -0.685101 0.069903
  C -1.217143 0.847021 0.172691
  C 0.150070 1.475031 -0.169924
  H 0.098871 1.877315 -1.182862
  H 0.285449 2.328358 0.496812
  H -1.488166 1.146465 1.186289
  H -1.952966 1.301622 -0.492831
  H -2.164115 -0.933514 -0.614864
  H -1.625972 -1.080435 1.050189
  H -0.194532 -2.468333 -0.183365
  H 0.075443 -1.273199 -1.454128
  H 1.998004 -1.462387 0.177518
  H 0.917184 -0.891486 1.451074
  H 2.117778 1.030835 0.616349
  H 1.878313 0.531219 -1.049959
 18
 10.320982
  C 1.423179 0.518203 -0.061544
  C 1.068431 -0.893031 0.392115
  C -0.136674 -1.385240 -0.395219
  C -1.378695 -0.629279 0.062004
  C -1.168087 0.890663 0.204619
  C 0.206810 1.454042 -0.201921
  H 0.149272 1.796529 -1.236608
  H 0.379870 2.342526 0.408531
  H -1.366682 1.173509 1.239731
  H -1.914939 1.403487 -0.404606
  H -2.198857 -0.826262 -0.630971
  H -1.676249 -1.034014 1.031988
  H -0.291798 -2.453262 -0.226412
  H 0.040235 -1.236999 -1.462256
  H 1.927886 -1.545103 0.220647
  H 0.839467 -0.914374 1.459300
  H 2.145835 0.951427 0.632568
  H 1.919220 0.441018 -1.031762
 18
 9.591494
  C 1.444273 0.459473 -0.052989
  C 1.024151 -0.935084 0.398396
  C -0.194340 -1.372650 -0.401358
  C -1.406476 -0.567133 0.053352
  C -1.116417 0.935264 0.233215
  C 0.262897 1.432311 -0.230645
  H 0.195373 1.718576 -1.281652
  H 0.476672 2.346400 0.327196
  H -1.246364 1.197260 1.284735
  H -1.864068 1.504076 -0.323341
  H -2.224367 -0.707808 -0.655892
  H -1.739590 -0.975286 1.010071
  H -0.394943 -2.434706 -0.243585
  H -0.002940 -1.222567 -1.465589
  H 1.855486 -1.625013 0.238148
  H 0.781913 -0.944248 1.462846
  H 2.164008 0.870939 0.657307
  H 1.961226 0.359798 -1.010026
 18
 8.773931
  C 1.463062 0.398490 -0.044485
  C 0.977265 -0.976670 0.403327
  C -0.254255 -1.357494 -0.406120
  C -1.432513 -0.499670 0.044942
  C -1.060368 0.979167 0.260898
  C 0.319261 1.407428 -0.258550
  H 0.237370 1.638091 -1.322221
  H 0.576790 2.341523 0.245102
  H -1.122977 1.214271 1.324984
  H -1.801506 1.604326 -0.241685
  H -2.243425 -0.581633 -0.681341
  H -1.804922 -0.906669 0.987610
  H -0.502003 -2.410676 -0.257010
  H -0.048907 -1.209294 -1.468011
  H 1.777316 -1.704415 0.251804
  H 0.724873 -0.973412 1.465339
  H 2.177732 0.788317 0.682924
  H 2.000763 0.275981 -0.987331
 18
 8.033475
  C 1.479090 0.336270 -0.035641
  C 0.931598 -1.020583 0.400462
  C -0.320185 -1.343650 -0.403015
  C -1.456991 -0.424009 0.036136
  C -1.001579 1.025373 0.283639
  C 0.377402 1.382755 -0.281585
  H 0.281357 1.566736 -1.353248
  H 0.682218 2.326736 0.175136
  H -1.006602 1.231632 1.355549
  H -1.726324 1.703350 -0.172127
  H -2.251112 -0.445054 -0.712640
  H -1.878910 -0.820077 0.962319
  H -0.619063 -2.381707 -0.242201
  H -0.108275 -1.218886 -1.466565
  H 1.696574 -1.782803 0.237385
  H 0.686351 -1.016923 1.464161
  H 2.183161 0.701908 0.714243
  H 2.040713 0.196850 -0.961838
 18
 7.206599
  C 1.493079 0.267250 -0.027695
  C 0.876701 -1.062880 0.402611
  C -0.387877 -1.321477 -0.404813
  C -1.478022 -0.342529 0.028210
  C -0.934348 1.068859 0.309131
  C 0.437402 1.350645 -0.307446
  H 0.319572 1.483183 -1.384577
  H 0.793327 2.302155 0.093464
  H -0.878063 1.236151 1.386400
  H -1.636298 1.803644 -0.091024
  H -2.254278 -0.300668 -0.738212
  H -1.945179 -0.724655 0.938362
  H -0.739571 -2.343182 -0.246722
  H -0.165149 -1.207229 -1.467307
  H 1.602257 -1.863159 0.242518
  H 0.627375 -1.047903 1.465229
  H 2.189493 0.610319 0.739794
  H 2.073641 0.101824 -0.937760
 18
 6.531284
  C 1.504470 0.191554 -0.020349
  C 0.817469 -1.108300 0.399785
  C -0.463683 -1.296199 -0.401523
  C -1.496000 -0.250281 0.020882
  C -0.860613 1.114833 0.330925
  C 0.502541 1.315725 -0.329719
  H 0.362289 1.404766 -1.408664
  H 0.914949 2.264302 0.020618
  H -0.751890 1.239966 1.409932
  H -1.528938 1.904489 -0.018955
  H -2.245790 -0.143771 -0.765418
  H -2.013385 -0.607104 0.913861
  H -0.873008 -2.294663 -0.234489
  H -0.236675 -1.205111 -1.465382
  H 1.497147 -1.946129 0.231090
  H 0.574053 -1.088448 1.463736
  H 2.190997 0.508829 0.766933
  H 2.103544 0.000434 -0.913100
 18
 5.935836
  C 1.512718 0.102778 -0.014072
  C 0.744881 -1.155125 0.398824
  C -0.547824 -1.260104 -0.399948
  C -1.509366 -0.143916 0.014613
  C -0.773310 1.161075 0.353936
  C 0.574797 1.271126 -0.353353
  H 0.405603 1.317051 -1.430860
  H 1.050621 2.209097 -0.059702
  H -0.613779 1.233790 1.431446
  H -1.394915 2.009507 0.060327
  H -2.227444 0.031033 -0.788881
  H -2.075967 -0.466975 0.890349
  H -1.021180 -2.229198 -0.229896
  H -0.315277 -1.188728 -1.464116
  H 1.369075 -2.034422 0.227574
  H 0.503889 -1.123809 1.463053
  H 2.192077 0.391458 0.790282
  H 2.125115 -0.123201 -0.889414
 18
 5.547533
  C 1.515823 -0.010678 -0.009641
  C 0.651444 -1.209120 0.394777
  C -0.651577 -1.208766 -0.395095
  C -1.515741 -0.010495 0.010200
  C -0.663864 1.213333 0.374839
  C 0.664150 1.213023 -0.375079
  H 0.462798 1.224498 -1.448026
  H 1.217084 2.123726 -0.136755
  H -0.462478 1.225453 1.447773
  H -1.216644 2.123979 0.135970
  H -2.191232 0.239391 -0.810315
  H -2.133499 -0.281434 0.868728
  H -1.202058 -2.134454 -0.216505
  H -0.419174 -1.165349 -1.460874
  H 1.201775 -2.134784 0.215586
  H 0.418995 -1.166363 1.460574
  H 2.190448 0.239323 0.811553
  H 2.134530 -0.281428 -0.867547
 18
 5.385782
  C 1.515566 -0.000111 0.000290
  C 0.651600 -1.204378 0.395132
  C -0.651812 -1.204008 -0.395468
  C -1.515633 0.000022 0.000327
  C -0.651637 1.204356 0.395055
  C 0.651904 1.204104 -0.395350
  H 0.417230 1.164345 -1.460762
  H 1.202823 2.129294 -0.216336
  H -0.416922 1.165272 1.460473
  H -1.202371 2.129514 0.215479
  H -2.162957 0.267359 -0.837248
  H -2.161878 -0.267539 0.838685
  H -1.202722 -2.129254 -0.216798
  H -0.416888 -1.164025 -1.460805
  H 1.202383 -2.129589 0.215807
  H 0.416659 -1.165055 1.460496
  H 2.161986 0.267295 0.838514
  H 2.162814 -0.267450 -0.837327
