 18
 0.000000
  C -1.515701 -0.000031 -0.000279
  C -0.651641 -1.204240 -0.395123
  C 0.651824 -1.203943 0.395399
  C 1.515743 0.000089 -0.000233
  C 0.651600 1.204158 -0.395207
  C -0.651813 1.203969 0.395443
  H -1.202729 2.129187 0.216667
  H -0.416950 1.164098 1.460806
  H 1.202359 2.129357 -0.216038
  H 0.416696 1.164670 -1.460564
  H 2.162276 -0.267367 -0.838430
  H 2.162782 0.267610 0.837579
  H 0.416951 -1.164162 1.460757
  H 1.202726 -2.129148 0.216574
  H -0.416775 -1.165099 -1.460483
  H -1.202443 -2.129349 -0.215678
  H -2.162973 -0.267320 0.837424
  H -2.162079 0.267483 -0.838610
 18
 0.036119
  C -1.509619 -0.131675 0.017769
  C -0.549914 -1.251296 -0.400460
  C 0.755457 -1.154534 0.380766
  C 1.509610 0.131723 0.017835
  C 0.549880 1.251259 -0.400554
  C -0.755446 1.154553 0.380745
  H -1.383617 2.021798 0.168894
  H -0.527619 1.168610 1.448373
  H 1.020241 2.221101 -0.227437
  H 0.329569 1.180387 -1.467335
  H 2.207326 -0.064950 -0.798587
  H 2.098593 0.456097 0.878023
  H 0.527672 -1.168655 1.448398
  H 1.383633 -2.021764 0.168859
  H -0.329640 -1.180647 -1.467261
  H -1.020288 -2.221094 -0.227138
  H -2.098780 -0.455950 0.877874
  H -2.207201 0.065029 -0.798762
 18
 0.127282
  C -1.495440 -0.239094 0.036118
  C -0.464483 -1.282429 -0.405893
  C 0.838412 -1.108749 0.366067
  C 1.495419 0.239143 0.036174
  C 0.464451 1.282395 -0.405981
  C -0.838408 1.108777 0.366046
  H -1.525256 1.921454 0.122182
  H -0.623741 1.171493 1.434692
  H 0.866150 2.283954 -0.239789
  H 0.260947 1.184694 -1.473888
  H 2.234091 0.108820 -0.757175
  H 2.026403 0.603877 0.917690
  H 0.623798 -1.171527 1.434723
  H 1.525259 -1.921416 0.122180
  H -0.260984 -1.184889 -1.473820
  H -0.866183 -2.283964 -0.239540
  H -2.026588 -0.603772 0.917554
  H -2.233991 -0.108749 -0.757337
 18
 0.258191
  C -1.477102 -0.327282 0.054526
  C -0.393088 -1.303559 -0.410406
  C 0.906402 -1.067726 0.350758
  C 1.477080 0.327352 0.054558
  C 0.393032 1.303516 -0.410506
  C -0.906407 1.067778 0.350761
  H -1.638106 1.829315 0.074363
  H -0.710426 1.175324 1.419451
  H 0.736248 2.327675 -0.250181
  H 0.208371 1.184170 -1.479562
  H 2.248419 0.258938 -0.715088
  H 1.952184 0.719099 0.956133
  H 0.710524 -1.175364 1.419468
  H 1.638101 -1.829299 0.074414
  H -0.208385 -1.184280 -1.479469
  H -0.736266 -2.327699 -0.249960
  H -1.952402 -0.719042 0.955993
  H -2.248316 -0.258872 -0.715253
 18
 0.411000
  C -1.455780 -0.404074 0.073034
  C -0.329713 -1.318716 -0.414394
  C 0.965689 -1.028696 0.335058
  C 1.455753 0.404166 0.073040
  C 0.329637 1.318662 -0.414502
  C -0.965704 1.028774 0.335093
  H -1.733507 1.740715 0.026274
  H -0.792451 1.177935 1.402711
  H 0.620082 2.359966 -0.259567
  H 0.165148 1.181049 -1.484590
  H 2.253718 0.395453 -0.672047
  H 1.876310 0.813893 0.993505
  H 0.792598 -1.177985 1.402707
  H 1.733494 -1.740721 0.026367
  H -0.165147 -1.181069 -1.484468
  H -0.620084 -2.360010 -0.259376
  H -1.876560 -0.813888 0.993363
  H -2.253609 -0.395387 -0.672208
 18
 0.572167
  C -1.431937 -0.473204 0.091546
  C -0.271429 -1.329906 -0.417811
  C 1.019271 -0.990263 0.319090
  C 1.431900 0.473294 0.091664
  C 0.271408 1.329825 -0.417986
  C -1.019326 0.990361 0.318924
  H -1.816779 1.653238 -0.022309
  H -0.872442 1.178416 1.384351
  H 0.512572 2.384435 -0.267833
  H 0.128182 1.176730 -1.488957
  H 2.251342 0.522983 -0.628064
  H 1.799098 0.893985 1.029834
  H 0.872422 -1.178331 1.384535
  H 1.816766 -1.653253 -0.021875
  H -0.128012 -1.176842 -1.488770
  H -0.512538 -2.384486 -0.267540
  H -1.799423 -0.893913 1.029599
  H -2.251190 -0.522981 -0.628404
 18
 0.731715
  C -1.406122 -0.535886 0.110154
  C -0.217445 -1.338109 -0.420672
  C 1.068268 -0.952243 0.302504
  C 1.406100 0.535936 0.110167
  C 0.217406 1.338096 -0.420696
  C -1.068282 0.952285 0.302540
  H -1.889895 1.566474 -0.070991
  H -0.950973 1.176377 1.364651
  H 0.412226 2.402849 -0.274317
  H 0.096160 1.172490 -1.492460
  H 2.242245 0.642697 -0.583677
  H 1.721653 0.961306 1.064849
  H 0.951049 -1.176412 1.364617
  H 1.889883 -1.566472 -0.070971
  H -0.096160 -1.172450 -1.492427
  H -0.412224 -2.402853 -0.274280
  H -1.721782 -0.961336 1.064773
  H -2.242207 -0.642642 -0.583768
 18
 0.878902
  C -1.378325 -0.593945 0.128663
  C -0.166064 -1.344111 -0.422902
  C 1.113880 -0.913612 0.285691
  C 1.378306 0.593973 0.128699
  C 0.166060 1.344110 -0.422921
  C -1.113899 0.913641 0.285659
  H -1.955210 1.478780 -0.120098
  H -1.029221 1.171036 1.343302
  H 0.316293 2.416545 -0.279611
  H 0.067620 1.168465 -1.495378
  H 2.227006 0.756877 -0.538478
  H 1.643503 1.018831 1.098789
  H 1.029198 -1.171014 1.343334
  H 1.955202 -1.478769 -0.120013
  H -0.067581 -1.168467 -1.495351
  H -0.316286 -2.416542 -0.279575
  H -1.643583 -1.018817 1.098730
  H -2.226986 -0.756853 -0.538556
 18
 1.007734
  C -1.348787 -0.647933 0.147067
  C -0.116848 -1.348372 -0.424453
  C 1.156565 -0.874225 0.268473
  C 1.348776 0.647950 0.147105
  C 0.116855 1.348382 -0.424461
  C -1.156586 0.874245 0.268416
  H -2.013455 1.389841 -0.169484
  H -1.107423 1.162021 1.320442
  H 0.223974 2.426304 -0.283183
  H 0.041812 1.165428 -1.497552
  H 2.206033 0.865941 -0.492837
  H 1.565330 1.067460 1.131480
  H 1.107350 -1.161982 1.320501
  H 2.013458 -1.389833 -0.169375
  H -0.041763 -1.165428 -1.497546
  H -0.223968 -2.426290 -0.283170
  H -1.565367 -1.067430 1.131445
  H -2.206027 -0.865935 -0.492890
 18
 1.111259
  C -1.317586 -0.698436 0.165349
  C -0.069229 -1.351132 -0.425400
  C 1.196644 -0.833791 0.250922
  C 1.317580 0.698447 0.165381
  C 0.069242 1.351150 -0.425401
  C -1.196664 0.833807 0.250857
  H -2.065239 1.299315 -0.218953
  H -1.185567 1.148894 1.296108
  H 0.134335 2.432614 -0.285257
  H 0.017972 1.163385 -1.499044
  H 2.179685 0.970448 -0.446748
  H 1.487263 1.108248 1.162944
  H 1.185468 -1.148848 1.296181
  H 2.065241 -1.299315 -0.218820
  H -0.017917 -1.163364 -1.499037
  H -0.134326 -2.432595 -0.285266
  H -1.487270 -1.108212 1.162925
  H -2.179686 -0.970457 -0.446776
 18
 1.203087
  C -1.285173 -0.745811 0.182996
  C -0.022832 -1.353619 -0.424450
  C 1.234744 -0.792168 0.232632
  C 1.285174 0.745823 0.183019
  C 0.022845 1.353641 -0.424446
  C -1.234766 0.792182 0.232561
  H -2.110767 1.206334 -0.270358
  H -1.265883 1.131279 1.269844
  H 0.046784 2.436504 -0.282021
  H -0.004451 1.165759 -1.498990
  H 2.147876 1.069930 -0.402274
  H 1.411778 1.141728 1.192515
  H 1.265765 -1.131231 1.269926
  H 2.110778 -1.206350 -0.270203
  H 0.004504 -1.165714 -1.498990
  H -0.046775 -2.436484 -0.282050
  H -1.411759 -1.141682 1.192505
  H -2.147878 -1.069948 -0.402274
 18
 1.241170
  C -1.250976 -0.790444 0.200850
  C 0.022782 -1.354101 -0.423961
  C 1.270201 -0.749101 0.214430
  C 1.250983 0.790455 0.200863
  C -0.022770 1.354126 -0.423950
  C -1.270225 0.749114 0.214357
  H -2.150335 1.111957 -0.320038
  H -1.344143 1.108803 1.242479
  H -0.039417 2.436973 -0.280421
  H -0.026197 1.166601 -1.498925
  H 2.111647 1.166022 -0.355954
  H 1.335098 1.169012 1.221391
  H 1.344007 -1.108755 1.242571
  H 2.150357 -1.111987 -0.319867
  H 0.026247 -1.166528 -1.498928
  H 0.039429 -2.436951 -0.280474
  H -1.335053 -1.168959 1.221395
  H -2.111652 -1.166051 -0.355924
 18
 1.238629
  C -1.215298 -0.832911 0.217524
  C 0.068317 -1.352200 -0.424420
  C 1.302580 -0.704199 0.198065
  C 1.215311 0.832923 0.217525
  C -0.068311 1.352225 -0.424403
  C -1.302607 0.704209 0.197992
  H -2.184989 1.017635 -0.363275
  H -1.416627 1.079603 1.216781
  H -0.125166 2.433829 -0.281709
  H -0.049325 1.164785 -1.499211
  H 2.070567 1.258066 -0.311270
  H 1.259365 1.192874 1.247272
  H 1.416463 -1.079567 1.216880
  H 2.185008 -1.017686 -0.363096
  H 0.049380 -1.164658 -1.499210
  H 0.125190 -2.433808 -0.281781
  H -1.259297 -1.192819 1.247290
  H -2.070563 -1.258108 -0.311209
 18
 1.201142
  C 1.178095 0.873212 0.234008
  C -0.113554 1.349202 -0.424343
  C -1.332977 0.657735 0.181458
  C -1.178127 -0.873187 0.233929
  C 0.113617 -1.349159 -0.424270
  C 1.333005 -0.657703 0.181477
  H 2.214409 -0.921194 -0.406385
  H 1.488805 -1.045537 1.190013
  H 0.210368 -2.427908 -0.281423
  H 0.072366 -1.164216 -1.498885
  H -2.024903 -1.346715 -0.266626
  H -1.184336 -1.211411 1.271942
  H -1.488610 1.045627 1.189999
  H -2.214360 0.921351 -0.406374
  H -0.072390 1.163815 -1.498877
  H -0.210464 2.427929 -0.281599
  H 1.184189 1.211463 1.272015
  H 2.024886 1.346848 -0.266431
 18
 1.120928
  C 1.138709 0.911742 0.250668
  C -0.159039 1.344166 -0.424786
  C -1.361281 0.609204 0.165196
  C -1.138767 -0.911716 0.250432
  C 0.159198 -1.343996 -0.424751
  C 1.361334 -0.609145 0.165129
  H 2.239235 -0.822423 -0.447822
  H 1.559046 -1.006289 1.162627
  H 0.295921 -2.418576 -0.282911
  H 0.095657 -1.162193 -1.498785
  H -1.974328 -1.433186 -0.220383
  H -1.107705 -1.225170 1.295755
  H -1.558567 1.006455 1.162738
  H -2.239083 0.822912 -0.447734
  H -0.095785 1.160954 -1.498569
  H -0.296273 2.418626 -0.283122
  H 1.107545 1.225267 1.295974
  H 1.974217 1.433539 -0.219945
 18
 0.975869
  C 1.095827 0.948519 0.268139
  C -0.204844 1.334829 -0.428719
  C -1.386784 0.558630 0.150540
  C -1.096014 -0.948386 0.267754
  C 0.204995 -1.334704 -0.428580
  C 1.386856 -0.558390 0.150196
  H 2.261218 -0.722841 -0.482548
  H 1.621605 -0.962418 1.136893
  H 0.382121 -2.404531 -0.295781
  H 0.118587 -1.149569 -1.500334
  H -1.918113 -1.519118 -0.168225
  H -1.024361 -1.233571 1.319185
  H -1.620667 0.962515 1.137473
  H -2.261295 0.723808 -0.481781
  H -0.118474 1.147673 -1.500065
  H -0.382364 2.404554 -0.296713
  H 1.023835 1.233433 1.319632
  H 1.917926 1.519752 -0.167291
 18
 0.814231
  C 1.049855 0.983573 0.285562
  C -0.251203 1.322945 -0.434018
  C -1.410116 0.505857 0.136560
  C -1.050294 -0.983350 0.285196
  C 0.251482 -1.322893 -0.433597
  C 1.410145 -0.505533 0.135908
  H 2.279906 -0.621159 -0.513867
  H 1.679865 -0.913039 1.112399
  H 0.469367 -2.386658 -0.315347
  H 0.141240 -1.130271 -1.501138
  H -1.855714 -1.603282 -0.112717
  H -0.937908 -1.235516 1.341534
  H -1.678340 0.913183 1.113661
  H -2.280468 0.622269 -0.511964
  H -0.140610 1.128528 -1.502429
  H -0.469029 2.386458 -0.317011
  H 0.936334 1.234899 1.342232
  H 1.855556 1.604191 -0.111136
 18
 0.701758
  C 1.004251 1.018053 0.300882
  C -0.298947 1.313899 -0.432800
  C -1.433179 0.449489 0.120664
  C -1.005138 -1.017523 0.300150
  C 0.299197 -1.314064 -0.432288
  C 1.432962 -0.448985 0.119655
  H 2.290535 -0.512980 -0.554298
  H 1.748153 -0.855110 1.083906
  H 0.558760 -2.368702 -0.312744
  H 0.167820 -1.130658 -1.498360
  H -1.788229 -1.681997 -0.068070
  H -0.864103 -1.237273 1.359856
  H -1.745811 0.854680 1.084616
  H -2.290914 0.514563 -0.550501
  H -0.166354 1.127797 -1.501466
  H -0.558374 2.368896 -0.315155
  H 0.861352 1.236368 1.361223
  H 1.788106 1.683766 -0.065402
 18
 0.575279
  C 0.959327 1.050729 0.314413
  C -0.347852 1.305764 -0.426868
  C -1.453651 0.390094 0.106221
  C -0.957656 -1.051736 0.314731
  C 0.345620 -1.304919 -0.428382
  C 1.454111 -0.389482 0.099429
  H 2.289769 -0.400428 -0.602912
  H 1.822231 -0.789264 1.046436
  H 0.646381 -2.344996 -0.299466
  H 0.192590 -1.140045 -1.496494
  H -1.715530 -1.758266 -0.027856
  H -0.792861 -1.240700 1.377405
  H -1.814034 0.787201 1.054934
  H -2.294061 0.403701 -0.589615
  H -0.198319 1.138250 -1.492833
  H -0.649818 2.351410 -0.298815
  H 0.797298 1.235292 1.376751
  H 1.716378 1.758181 -0.026828
 18
 0.439846
  C 0.907108 1.082886 0.330512
  C -0.401233 1.292054 -0.424504
  C -1.473135 0.327391 0.085599
  C -0.907644 -1.083301 0.328467
  C 0.401868 -1.292005 -0.423389
  C 1.473123 -0.325204 0.084494
  H 2.286584 -0.282297 -0.640871
  H 1.889898 -0.713129 1.015967
  H 0.748150 -2.318436 -0.285662
  H 0.233033 -1.145603 -1.491513
  H -1.635692 -1.833867 0.012223
  H -0.724013 -1.235525 1.395660
  H -1.886333 0.715675 1.020350
  H -2.290901 0.287433 -0.638103
  H -0.230604 1.140313 -1.491097
  H -0.746770 2.318524 -0.291937
  H 0.721870 1.231414 1.395207
  H 1.634805 1.833936 0.018527
 18
 0.313380
  C 0.854017 1.115300 0.343413
  C -0.456522 1.277068 -0.418422
  C -1.489204 0.257407 0.068333
  C -0.854583 -1.115229 0.342300
  C 0.456930 -1.276986 -0.418003
  C 1.489282 -0.256607 0.067652
  H 2.276753 -0.161372 -0.682527
  H 1.956320 -0.626468 0.982597
  H 0.848846 -2.285689 -0.271109
  H 0.271489 -1.151990 -1.486099
  H -1.548230 -1.906667 0.052301
  H -0.655103 -1.230200 1.409602
  H -1.954091 0.627385 0.984337
  H -2.277976 0.163805 -0.680703
  H -0.269964 1.148209 -1.485825
  H -0.848789 2.285852 -0.273884
  H 0.653467 1.228841 1.410666
  H 1.547482 1.907621 0.055324
 18
 0.217736
  C 0.796780 1.148349 0.354982
  C -0.516803 1.259492 -0.410401
  C -1.502313 0.181772 0.050579
  C -0.796879 -1.148389 0.354585
  C 0.517003 -1.259226 -0.410377
  C 1.502370 -0.181599 0.050497
  H 2.257302 -0.034153 -0.724339
  H 2.020932 -0.525693 0.947536
  H 0.957826 -2.245341 -0.249962
  H 0.318254 -1.160562 -1.478995
  H -1.451126 -1.980215 0.086893
  H -0.587477 -1.227480 1.423193
  H -2.020344 0.526152 0.947818
  H -2.257416 0.034961 -0.724192
  H -0.317835 1.159082 -1.478793
  H -0.958098 2.245366 -0.250410
  H 0.587104 1.227273 1.423556
  H 1.450859 1.980512 0.087801
 18
 0.110183
  C 0.730436 1.180848 0.368399
  C -0.581901 1.233945 -0.405265
  C -1.511438 0.097849 0.033441
  C -0.730499 -1.180839 0.368226
  C 0.582006 -1.233879 -0.405174
  C 1.511468 -0.097720 0.033444
  H 2.230029 0.103444 -0.763578
  H 2.079572 -0.410671 0.911709
  H 1.075546 -2.193317 -0.237893
  H 0.368765 -1.157682 -1.472945
  H -1.338194 -2.055585 0.129133
  H -0.509597 -1.218125 1.436790
  H -2.079309 0.410914 0.911815
  H -2.230157 -0.103141 -0.763474
  H -0.368484 1.157311 -1.472964
  H -1.075512 2.193377 -0.238265
  H 0.509291 1.217889 1.436924
  H 1.338122 2.055707 0.129667
 18
 0.035090
  C 0.652428 1.215719 0.380907
  C -0.656186 1.198743 -0.400673
  C -1.515373 0.000340 0.017900
  C -0.652497 -1.215690 0.380750
  C 0.656287 -1.198708 -0.400566
  C 1.515380 -0.000184 0.017879
  H 2.193208 0.256320 -0.798706
  H 2.130515 -0.272248 0.877901
  H 1.208934 -2.124175 -0.227636
  H 0.430672 -1.147080 -1.467342
  H -1.202998 -2.134239 0.169095
  H -0.424161 -1.209836 1.448343
  H -2.130274 0.272506 0.878044
  H -2.193392 -0.256055 -0.798536
  H -0.430352 1.146775 -1.467380
  H -1.208843 2.124257 -0.228084
  H 0.423855 1.209557 1.448453
  H 1.202943 2.134350 0.169655
 18
 0.000006
  C 0.650842 1.204621 0.395315
  C -0.652547 1.203536 -0.395286
  C -1.515765 -0.001053 0.000040
  C -0.650933 -1.204561 0.395141
  C 0.652649 -1.203532 -0.395188
  C 1.515740 0.001235 -0.000014
  H 2.162244 0.269195 -0.838057
  H 2.162807 -0.265704 0.837935
  H 1.204176 -2.128306 -0.215924
  H 0.417906 -1.164283 -1.460604
  H -1.201064 -2.130116 0.215717
  H -0.416251 -1.165077 1.460552
  H -2.162555 0.265970 0.838078
  H -2.162421 -0.268922 -0.837759
  H -0.417550 1.163920 -1.460598
  H -1.204042 2.128375 -0.216450
  H 0.415891 1.164780 1.460651
  H 1.201021 2.130246 0.216380
