  18
 
 C         -0.6017359172       -1.3163315875       -0.2415259823
 C          0.8391506523       -1.1792443583        0.2414593897
 C          1.4408557793        0.1371457088       -0.2415377276
 C          0.6016289011        1.3162942725        0.2417056632
 C         -0.8391117589        1.1792179390       -0.2417489887
 C         -1.4408076011       -0.1370387076        0.2416665285
 H         -2.4656159286       -0.2345504307       -0.1235225129
 H         -1.4732320977       -0.1401483004        1.3338965785
 H         -1.4360271997        2.0180323961        0.1232423719
 H         -0.8577880465        1.2056084413       -1.3339950087
 H          1.0296825795        2.2526075107       -0.1233523448
 H          0.6150696323        1.3456388202        1.3339557533
 H          2.4656768612        0.2345467123        0.1236944538
 H          1.4733080191        0.1404244727       -1.3337419775
 H          1.4359554752       -2.0178595198       -0.1241083509
 H          0.8582248204       -1.2061412846        1.3336630996
 H         -1.0296244374       -2.2526006092        0.1237592958
 H         -0.6153920024       -1.3460738139       -1.3337163823
