 18
 0.000000
  C -1.133722 -0.899567 0.241680
  C 0.212223 -1.431617 -0.241639
  C 1.345997 -0.532026 0.241570
  C 1.133775 0.899666 -0.241616
  C -0.212252 1.431522 0.241688
  C -1.346033 0.532024 -0.241709
  H -1.376202 0.543960 -1.333927
  H -2.303444 0.910434 0.123371
  H -0.216961 1.463557 1.333916
  H -0.363223 2.449888 -0.123317
  H 1.159285 0.920122 -1.333862
  H 1.940178 1.539519 0.123695
  H 1.376280 -0.544075 1.333760
  H 2.303355 -0.910418 -0.123656
  H 0.216923 -1.463915 -1.333850
  H 0.363215 -2.449909 0.123602
  H -1.159080 -0.919727 1.333912
  H -1.940194 -1.539462 -0.123348
 18
 0.642328
  C -1.151058 -0.892785 0.227904
  C 0.206332 -1.447845 -0.196976
  C 1.363088 -0.529968 0.196914
  C 1.131016 0.918085 -0.227840
  C -0.220283 1.432513 0.254527
  C -1.344992 0.540054 -0.254457
  H -1.355024 0.556803 -1.347122
  H -2.307633 0.920031 0.095083
  H -0.234298 1.446091 1.347193
  H -0.371574 2.456320 -0.094998
  H 1.177559 0.988403 -1.317437
  H 1.926794 1.544882 0.181296
  H 1.505487 -0.571179 1.279625
  H 2.279214 -0.895119 -0.273265
  H 0.214025 -1.595859 -1.279691
  H 0.353777 -2.423000 0.273158
  H -1.229964 -0.922126 1.317512
  H -1.942353 -1.525303 -0.181122
 18
 2.248929
  C -1.167324 -0.886555 0.215796
  C 0.200907 -1.461820 -0.149820
  C 1.377927 -0.527849 0.149784
  C 1.128634 0.935335 -0.215755
  C -0.227347 1.430942 0.269803
  C -1.341839 0.546593 -0.269709
  H -1.326669 0.567311 -1.362184
  H -2.310981 0.928545 0.059344
  H -0.250938 1.420853 1.362268
  H -0.379084 2.461556 -0.059220
  H 1.190968 1.057253 -1.299944
  H 1.915816 1.546847 0.231815
  H 1.634207 -0.596062 1.209710
  H 2.242470 -0.879250 -0.418628
  H 0.209055 -1.726878 -1.209748
  H 0.346673 -2.383621 0.418565
  H -1.300160 -0.919591 1.300002
  H -1.941757 -1.514164 -0.231757
 18
 4.432258
  C -1.181814 -0.882842 0.203326
  C 0.197446 -1.474527 -0.099551
  C 1.391083 -0.527362 0.099542
  C 1.128312 0.950275 -0.203306
  C -0.232865 1.428929 0.282520
  C -1.338623 0.551524 -0.282422
  H -1.304187 0.578090 -1.374290
  H -2.312265 0.934900 0.031599
  H -0.266517 1.401394 1.374385
  H -0.384959 2.464233 -0.031453
  H 1.204669 1.123258 -1.279659
  H 1.907219 1.544218 0.280803
  H 1.756057 -0.620816 1.124884
  H 2.194366 -0.863951 -0.559818
  H 0.205503 -1.851197 -1.124890
  H 0.342695 -2.333281 0.559807
  H -1.367616 -0.917950 1.279670
  H -1.937222 -1.506360 -0.280808
 18
 6.699221
  C -1.194607 -0.877903 0.193671
  C 0.194406 -1.482465 -0.046398
  C 1.399493 -0.526222 0.046403
  C 1.126400 0.963864 -0.193697
  C -0.237995 1.423025 0.300190
  C -1.331691 0.555204 -0.300110
  H -1.264667 0.583344 -1.390117
  H -2.312813 0.941331 -0.014039
  H -0.280566 1.364082 1.390180
  H -0.391069 2.466288 0.014179
  H 1.207528 1.185166 -1.260666
  H 1.901065 1.540635 0.317319
  H 1.872388 -0.644678 1.023617
  H 2.131971 -0.847651 -0.697579
  H 0.202303 -1.969868 -1.023480
  H 0.340966 -2.268857 0.697641
  H -1.428618 -0.906713 1.260668
  H -1.932308 -1.501183 -0.317433
 18
 8.821163
  C -1.204411 -0.877348 0.182324
  C 0.194645 -1.487854 0.007257
  C 1.404693 -0.527687 -0.007179
  C 1.128122 0.973469 -0.182355
  C -0.240960 1.418854 0.311011
  C -1.326977 0.557127 -0.310922
  H -1.244503 0.591832 -1.399612
  H -2.311202 0.943897 -0.036656
  H -0.293449 1.346367 1.399770
  H -0.393958 2.465373 0.036764
  H 1.219108 1.240929 -1.237977
  H 1.896958 1.529650 0.358721
  H 1.972957 -0.671409 0.913851
  H 2.058496 -0.834019 -0.826139
  H 0.205512 -2.073966 -0.913707
  H 0.344335 -2.194102 0.826268
  H -1.485626 -0.905248 1.237756
  H -1.920670 -1.499582 -0.358831
 18
 10.530216
  C -1.211468 -0.880943 0.170875
  C 0.197513 -1.489957 0.059668
  C 1.406089 -0.530976 -0.059555
  C 1.133234 0.979527 -0.170931
  C -0.241607 1.417244 0.314385
  C -1.325231 0.557441 -0.314331
  H -1.242088 0.600786 -1.402775
  H -2.309054 0.944276 -0.038339
  H -0.302652 1.346089 1.402834
  H -0.394716 2.463261 0.038444
  H 1.241316 1.288950 -1.213176
  H 1.894084 1.510711 0.404713
  H 2.054618 -0.698917 0.801855
  H 1.975059 -0.824338 -0.942894
  H 0.213735 -2.159789 -0.801664
  H 0.353821 -2.110607 0.943084
  H -1.537505 -0.915977 1.213070
  H -1.901592 -1.501114 -0.404926
 18
 11.499785
  C -1.216597 -0.883780 0.161346
  C 0.201183 -1.485506 0.113002
  C 1.400914 -0.533576 -0.112875
  C 1.137178 0.983846 -0.161427
  C -0.241891 1.412970 0.320913
  C -1.320996 0.556786 -0.320853
  H -1.227442 0.605044 -1.408253
  H -2.306506 0.944690 -0.052752
  H -0.310070 1.332783 1.408311
  H -0.395631 2.460869 0.052882
  H 1.259186 1.332874 -1.189293
  H 1.892969 1.488262 0.443774
  H 2.125919 -0.726956 0.678980
  H 1.876626 -0.814769 -1.053061
  H 0.224790 -2.235603 -0.678738
  H 0.366806 -2.012542 1.053270
  H -1.584398 -0.923399 1.189136
  H -1.879483 -1.505075 -0.444045
 18
 11.551673
  C -1.219537 -0.886250 0.152761
  C 0.205804 -1.473738 0.166768
  C 1.388414 -0.535381 -0.166731
  C 1.140227 0.986175 -0.152868
  C -0.241935 1.405707 0.331017
  C -1.313941 0.555191 -0.330853
  H -1.202861 0.607004 -1.416231
  H -2.302971 0.944076 -0.077517
  H -0.317486 1.309175 1.416384
  H -0.395857 2.457271 0.077845
  H 1.273645 1.374341 -1.164964
  H 1.893861 1.462535 0.477174
  H 2.185175 -0.756329 0.544945
  H 1.764596 -0.804341 -1.154571
  H 0.239930 -2.299946 -0.544819
  H 0.382165 -1.901095 1.154658
  H -1.628027 -0.928187 1.164788
  H -1.854604 -1.511788 -0.477521
 18
 10.753468
  C -1.220828 -0.887533 0.144380
  C 0.210752 -1.452891 0.223769
  C 1.367023 -0.535450 -0.223723
  C 1.141768 0.987155 -0.144529
  C -0.241923 1.389950 0.351310
  C -1.298640 0.551542 -0.351124
  H -1.146129 0.601999 -1.431045
  H -2.295479 0.942942 -0.135253
  H -0.325558 1.252705 1.431334
  H -0.396565 2.449698 0.135619
  H 1.275536 1.413951 -1.141214
  H 1.899902 1.437015 0.499575
  H 2.231825 -0.789106 0.392296
  H 1.633425 -0.791217 -1.250628
  H 0.261288 -2.352827 -0.392133
  H 0.399188 -1.770301 1.250726
  H -1.666997 -0.921064 1.140827
  H -1.830995 -1.523409 -0.499930
 18
 9.534894
  C -1.219273 -0.894415 0.134639
  C 0.218002 -1.431699 0.273421
  C 1.344754 -0.537703 -0.273295
  C 1.148097 0.984133 -0.134788
  C -0.239394 1.380598 0.360877
  C -1.290098 0.546946 -0.360719
  H -1.117973 0.598055 -1.431671
  H -2.294269 0.941622 -0.162739
  H -0.328149 1.224411 1.432079
  H -0.395540 2.448011 0.163089
  H 1.298976 1.445530 -1.112075
  H 1.904822 1.398344 0.534272
  H 2.261949 -0.820736 0.252693
  H 1.501768 -0.779111 -1.323214
  H 0.285254 -2.389287 -0.252347
  H 0.417238 -1.639229 1.323235
  H -1.702957 -0.936737 1.111479
  H -1.794396 -1.537112 -0.534681
 18
 8.041387
  C -1.214523 -0.901983 0.122990
  C 0.226954 -1.405423 0.320988
  C 1.317193 -0.540375 -0.320872
  C 1.154410 0.977719 -0.123220
  C -0.236607 1.370810 0.368225
  C -1.281270 0.542004 -0.368084
  H -1.092730 0.595788 -1.440901
  H -2.283607 0.936340 -0.184866
  H -0.331639 1.199245 1.441005
  H -0.392838 2.436393 0.185254
  H 1.330818 1.474704 -1.079520
  H 1.906782 1.349356 0.574842
  H 2.273405 -0.850652 0.107038
  H 1.361511 -0.765589 -1.387618
  H 0.311940 -2.407441 -0.106785
  H 0.436102 -1.499523 1.388076
  H -1.738847 -0.961163 1.079061
  H -1.747088 -1.550037 -0.575353
 18
 6.730534
  C -1.206696 -0.912906 0.109885
  C 0.236546 -1.379665 0.363950
  C 1.289924 -0.543877 -0.363798
  C 1.163229 0.967641 -0.110102
  C -0.232810 1.364048 0.370106
  C -1.275524 0.536760 -0.369964
  H -1.083768 0.596600 -1.442813
  H -2.277468 0.930773 -0.188977
  H -0.334470 1.190716 1.442956
  H -0.388862 2.429478 0.189306
  H 1.376457 1.497951 -1.040605
  H 1.905675 1.290583 0.621981
  H 2.275432 -0.878614 -0.032910
  H 1.225604 -0.748659 -1.434129
  H 0.338688 -2.415648 0.033280
  H 0.450438 -1.363296 1.434480
  H -1.771893 -1.000389 1.040230
  H -1.689623 -1.562473 -0.622600
 18
 5.825202
  C -1.196189 -0.926810 0.095068
  C 0.246298 -1.360736 0.394880
  C 1.269257 -0.549124 -0.394698
  C 1.174349 0.954311 -0.095275
  C -0.227714 1.365917 0.361075
  C -1.278480 0.532221 -0.360929
  H -1.111620 0.605201 -1.437311
  H -2.277350 0.922089 -0.155250
  H -0.336511 1.219835 1.437451
  H -0.380427 2.427293 0.155610
  H 1.436787 1.511165 -0.997055
  H 1.898135 1.225823 0.675659
  H 2.271864 -0.902064 -0.144922
  H 1.116514 -0.730486 -1.460379
  H 0.362246 -2.417384 0.145391
  H 0.457407 -1.252933 1.460576
  H -1.798401 -1.056223 0.996607
  H -1.624684 -1.569826 -0.676199
 18
 5.385789
  C -1.185731 -0.940867 0.077850
  C 0.254516 -1.335200 0.428280
  C 1.242532 -0.551351 -0.428092
  C 1.185613 0.940932 -0.078098
  C -0.222720 1.360484 0.361356
  C -1.274262 0.526115 -0.361164
  H -1.108753 0.606891 -1.437162
  H -2.273056 0.914686 -0.153976
  H -0.338812 1.217549 1.437375
  H -0.374171 2.421492 0.154402
  H 1.491260 1.524992 -0.948422
  H 1.891775 1.160043 0.725244
  H 2.255743 -0.928375 -0.277201
  H 0.991613 -0.700468 -1.480019
  H 0.391492 -2.407630 0.277697
  H 0.456499 -1.124460 1.480198
  H -1.824303 -1.106274 0.947875
  H -1.559113 -1.578585 -0.725873
