 18
 0.000000
  C -1.439681 -0.148141 -0.241631
  C -0.591553 -1.320941 0.241578
  C 0.848168 -1.172703 -0.241555
  C 1.439781 0.148219 0.241593
  C 0.591475 1.320848 -0.241659
  C -0.848204 1.172727 0.241673
  H -1.451564 2.006971 -0.123223
  H -0.867043 1.198954 1.333909
  H 1.012287 2.260458 0.123284
  H 0.604700 1.350407 -1.333884
  H 2.463837 0.253625 -0.123544
  H 1.472106 0.151638 1.333803
  H 1.451454 -2.006847 0.123646
  H 0.867267 -1.199129 -1.333759
  H -1.012307 -2.260511 -0.123603
  H -0.604879 -1.350641 1.333775
  H -2.463755 -0.253592 0.123427
  H -1.471955 -0.151429 -1.333834
 18
 0.224909
  C -1.446992 -0.132304 -0.230347
  C -0.605154 -1.323716 0.218302
  C 0.851093 -1.180706 -0.218352
  C 1.445113 0.151696 0.230307
  C 0.593265 1.321211 -0.251231
  C -0.838947 1.180540 0.251314
  H -1.441634 2.020026 -0.102596
  H -0.843310 1.202359 1.343841
  H 1.021137 2.261863 0.102781
  H 0.593315 1.343589 -1.343757
  H 2.459636 0.249407 -0.163020
  H 1.506518 0.172453 1.321125
  H 1.436624 -1.999060 0.207352
  H 0.913130 -1.257918 -1.306569
  H -1.020313 -2.240334 -0.207407
  H -0.650982 -1.411518 1.306521
  H -2.461172 -0.233845 0.162903
  H -1.511193 -0.123832 -1.321167
 18
 0.844546
  C -1.454358 -0.117340 -0.219097
  C -0.618407 -1.326765 0.193469
  C 0.854119 -1.188784 -0.193558
  C 1.450880 0.154864 0.219032
  C 0.594822 1.320974 -0.260739
  C -0.829861 1.187435 0.260890
  H -1.431758 2.032038 -0.082161
  H -0.819687 1.205193 1.353487
  H 1.029342 2.262630 0.082477
  H 0.581527 1.336740 -1.353335
  H 2.455346 0.244235 -0.201463
  H 1.540908 0.194366 1.307387
  H 1.419473 -1.988693 0.290773
  H 0.959574 -1.316372 -1.273659
  H -1.025328 -2.217765 -0.290875
  H -0.698320 -1.471728 1.273564
  H -2.457998 -0.216173 0.201268
  H -1.550029 -0.095141 -1.307459
 18
 1.770629
  C -1.461416 -0.102848 -0.208408
  C -0.631314 -1.329480 0.167470
  C 0.856688 -1.196735 -0.167581
  C 1.456607 0.157437 0.208323
  C 0.596329 1.319962 -0.270532
  C -0.820531 1.193506 0.270726
  H -1.421550 2.043461 -0.060556
  H -0.795266 1.206395 1.363146
  H 1.037410 2.262807 0.060957
  H 0.569172 1.328431 -1.362948
  H 2.451004 0.237717 -0.237363
  H 1.573741 0.216547 1.293225
  H 1.399480 -1.975872 0.373162
  H 1.005536 -1.374088 -1.235415
  H -1.027634 -2.192374 -0.373288
  H -0.746417 -1.530385 1.235301
  H -2.454388 -0.199909 0.237107
  H -1.586994 -0.065263 -1.293325
 18
 2.928649
  C -1.468309 -0.089336 -0.197651
  C -0.643629 -1.332120 0.140477
  C 0.858605 -1.204854 -0.140595
  C 1.462511 0.158939 0.197549
  C 0.598182 1.318561 -0.279445
  C -0.811436 1.199059 0.279662
  H -1.411054 2.053826 -0.041748
  H -0.772501 1.208636 1.371719
  H 1.045449 2.261943 0.042199
  H 0.558176 1.321740 -1.371500
  H 2.446291 0.229435 -0.272628
  H 1.606383 0.237676 1.278019
  H 1.376627 -1.960854 0.454260
  H 1.049632 -1.431006 -1.192282
  H -1.027100 -2.164485 -0.454386
  H -0.793891 -1.587179 1.192170
  H -2.450022 -0.185416 0.272324
  H -1.623169 -0.035770 -1.278139
 18
 4.231753
  C -1.474785 -0.076560 -0.187193
  C -0.655198 -1.334264 0.112718
  C 0.859641 -1.212718 -0.112824
  C 1.468253 0.159567 0.187072
  C 0.600142 1.316590 -0.288139
  C -0.802320 1.203970 0.288367
  H -1.400361 2.063447 -0.023398
  H -0.750005 1.210310 1.379872
  H 1.053477 2.260339 0.023874
  H 0.547463 1.314818 -1.379639
  H 2.441316 0.219663 -0.306163
  H 1.637706 0.257844 1.262233
  H 1.350802 -1.943424 0.533733
  H 1.091495 -1.486817 -1.144569
  H -1.023575 -2.133941 -0.533825
  H -0.840385 -1.641791 1.144471
  H -2.445090 -0.172457 0.305802
  H -1.657493 -0.006401 -1.262387
 18
 5.594953
  C -1.480732 -0.064446 -0.177124
  C -0.665858 -1.335648 0.084327
  C 0.859600 -1.220079 -0.084413
  C 1.473710 0.159381 0.176985
  C 0.602101 1.313992 -0.296852
  C -0.793092 1.208192 0.297078
  H -1.389513 2.072355 -0.004779
  H -0.727354 1.210957 1.387831
  H 1.061507 2.258067 0.005262
  H 0.536667 1.307147 -1.387604
  H 2.436113 0.208470 -0.337739
  H 1.667548 0.277055 1.246054
  H 1.321891 -1.923486 0.611377
  H 1.130820 -1.541470 -1.092436
  H -1.016911 -2.100701 -0.611431
  H -0.885570 -1.694168 1.092377
  H -2.439678 -0.160980 0.337331
  H -1.689800 0.022834 -1.246237
 18
 6.941995
  C -1.486166 -0.053043 -0.167364
  C -0.675475 -1.336190 0.055364
  C 0.858348 -1.226842 -0.055422
  C 1.478867 0.158339 0.167205
  C 0.604067 1.310789 -0.305512
  C -0.783779 1.211743 0.305733
  H -1.378501 2.080562 0.013980
  H -0.704637 1.210635 1.395529
  H 1.069509 2.255115 -0.013498
  H 0.525848 1.298792 -1.395316
  H 2.430655 0.195844 -0.367631
  H 1.695959 0.295019 1.229490
  H 1.289769 -1.901026 0.687105
  H 1.167028 -1.594732 -1.036171
  H -1.006903 -2.064812 -0.687104
  H -0.928853 -1.744048 1.036153
  H -2.433808 -0.151002 0.367173
  H -1.720129 0.051599 -1.229705
 18
 8.211289
  C -1.491222 -0.042569 -0.157738
  C -0.683940 -1.335938 0.026007
  C 0.855798 -1.233046 -0.026036
  C 1.483868 0.156251 0.157558
  C 0.606262 1.307146 -0.313562
  C -0.774642 1.214757 0.313771
  H -1.367359 2.088029 0.031328
  H -0.682898 1.210190 1.402519
  H 1.077494 2.251446 -0.030859
  H 0.515901 1.290745 -1.402319
  H 2.424716 0.181597 -0.396712
  H 1.723550 0.310902 1.212454
  H 1.254305 -1.876265 0.760570
  H 1.199196 -1.646090 -0.976530
  H -0.993330 -2.026548 -0.760513
  H -0.969337 -1.790870 0.976563
  H -2.427268 -0.142690 0.396209
  H -1.748991 0.078944 -1.212702
 18
 9.337231
  C -1.495823 -0.032893 -0.148353
  C -0.691135 -1.334634 -0.003659
  C 0.851808 -1.238410 0.003660
  C 1.488583 0.153242 0.148153
  C 0.608547 1.302993 -0.321318
  C -0.765552 1.217184 0.321516
  H -1.356107 2.094823 0.048235
  H -0.661549 1.209063 1.409090
  H 1.085462 2.247148 -0.047776
  H 0.506315 1.282347 -1.408887
  H 2.418283 0.165754 -0.424784
  H 1.750310 0.324982 1.195062
  H 1.215393 -1.849018 0.831669
  H 1.227436 -1.695606 -0.913576
  H -0.976050 -1.985815 -0.831568
  H -1.007061 -1.834796 0.913667
  H -2.420093 -0.136034 0.424234
  H -1.776467 0.105112 -1.195357
 18
 10.266327
  C -1.499943 -0.023979 -0.139216
  C -0.696963 -1.332136 -0.033543
  C 0.846280 -1.242763 0.033570
  C 1.492953 0.149350 0.138998
  C 0.610861 1.298311 -0.328895
  C -0.756469 1.219012 0.329089
  H -1.344759 2.101000 0.065076
  H -0.640376 1.207035 1.415336
  H 1.093390 2.242249 -0.064618
  H 0.496878 1.273352 -1.415143
  H 2.411280 0.148270 -0.451896
  H 1.776338 0.337294 1.177349
  H 1.172999 -1.819210 0.900234
  H 1.251638 -1.743148 -0.847497
  H -0.954975 -1.942608 -0.900093
  H -1.041861 -1.875779 0.847639
  H -2.412248 -0.131084 0.451301
  H -1.802701 0.130109 -1.177685
 18
 10.949492
  C -1.503505 -0.015704 -0.130379
  C -0.701329 -1.328242 -0.063584
  C 0.839112 -1.245887 0.063628
  C 1.496855 0.144697 0.130139
  C 0.613010 1.292988 -0.336679
  C -0.747211 1.220148 0.336874
  H -1.333271 2.106571 0.082965
  H -0.618655 1.203472 1.421556
  H 1.101209 2.236775 -0.082498
  H 0.486912 1.263052 -1.421363
  H 2.403796 0.129236 -0.477731
  H 1.801408 0.348241 1.159416
  H 1.127227 -1.786650 0.966097
  H 1.271844 -1.788683 -0.778236
  H -0.930171 -1.896841 -0.965929
  H -1.073743 -1.913873 0.778423
  H -2.403895 -0.127782 0.477086
  H -1.827559 0.154323 -1.159781
 18
 11.400928
  C -1.506917 -0.008638 -0.121393
  C -0.704355 -1.323497 -0.093183
  C 0.830480 -1.248258 0.093236
  C 1.500699 0.138764 0.121136
  C 0.615879 1.287870 -0.342704
  C -0.738790 1.221349 0.342912
  H -1.322016 2.111641 0.096251
  H -0.600201 1.201940 1.426279
  H 1.109241 2.230855 -0.095754
  H 0.479795 1.255373 -1.426081
  H 2.394612 0.107910 -0.504973
  H 1.827850 0.355478 1.140611
  H 1.078295 -1.752233 1.028215
  H 1.286942 -1.831091 -0.708171
  H -0.901723 -1.849513 -1.028037
  H -1.101651 -1.947956 0.708388
  H -2.393828 -0.126758 0.504290
  H -1.853202 0.175171 -1.141019
 18
 11.535640
  C -1.509669 -0.001854 -0.112731
  C -0.705893 -1.316951 -0.122717
  C 0.820070 -1.248925 0.122794
  C 1.503765 0.132431 0.112454
  C 0.618119 1.282003 -0.349764
  C -0.729873 1.221802 0.349966
  H -1.310610 2.116252 0.112703
  H -0.579793 1.197928 1.431611
  H 1.116983 2.224496 -0.112210
  H 0.470697 1.245250 -1.431421
  H 2.385064 0.085452 -0.530228
  H 1.852704 0.362293 1.121658
  H 1.026629 -1.714740 1.087157
  H 1.298246 -1.871263 -0.635017
  H -0.870224 -1.799559 -1.086948
  H -1.126831 -1.979122 0.635289
  H -2.383626 -0.127020 0.529505
  H -1.877149 0.196180 -1.122104
 18
 11.372007
  C -1.511335 0.005006 -0.104188
  C -0.705263 -1.307833 -0.154229
  C 0.807535 -1.247107 0.154327
  C 1.505938 0.126041 0.103889
  C 0.618190 1.273328 -0.361207
  C -0.718430 1.219567 0.361405
  H -1.297707 2.119627 0.142494
  H -0.550200 1.184297 1.439813
  H 1.123490 2.216822 -0.142000
  H 0.453260 1.225083 -1.439624
  H 2.377110 0.062057 -0.551051
  H 1.873400 0.372112 1.102632
  H 0.970089 -1.671097 1.146313
  H 1.306761 -1.911591 -0.552758
  H -0.833359 -1.743792 -1.146077
  H -1.149670 -2.009922 0.553090
  H -2.374941 -0.128520 0.550278
  H -1.896766 0.220973 -1.103113
 18
 11.005503
  C -1.513158 0.009749 -0.095131
  C -0.703561 -1.298901 -0.183826
  C 0.794079 -1.245427 0.183936
  C 1.508463 0.117521 0.094815
  C 0.620224 1.265819 -0.368442
  C -0.709080 1.218254 0.368644
  H -1.285595 2.122598 0.160585
  H -0.528738 1.177053 1.444782
  H 1.130833 2.208883 -0.160069
  H 0.443207 1.212276 -1.444600
  H 2.365427 0.035180 -0.576558
  H 1.898801 0.374867 1.081899
  H 0.912102 -1.627339 1.199167
  H 1.309558 -1.947232 -0.473916
  H -0.794100 -1.688598 -1.198920
  H -1.167733 -2.035402 0.474291
  H -2.362478 -0.133391 0.575757
  H -1.920253 0.238761 -1.082421
 18
 10.320248
  C -1.513920 0.016266 -0.086899
  C -0.699760 -1.285820 -0.215464
  C 0.778391 -1.239608 0.215572
  C 1.509801 0.110633 0.086557
  C 0.618294 1.254290 -0.382784
  C -0.695612 1.213093 0.382993
  H -1.269710 2.124938 0.204059
  H -0.491284 1.150595 1.453557
  H 1.134403 2.200186 -0.203489
  H 0.418175 1.179607 -1.453444
  H 2.357805 0.009198 -0.593433
  H 1.914989 0.383957 1.063483
  H 0.848319 -1.575210 1.251621
  H 1.308574 -1.980635 -0.385735
  H -0.748644 -1.625487 -1.251263
  H -1.182657 -2.058193 0.386107
  H -2.354348 -0.137799 0.592538
  H -1.934702 0.263928 -1.063985
 18
 9.590547
  C -1.515066 0.019170 -0.077557
  C -0.695511 -1.274804 -0.243570
  C 0.762518 -1.235654 0.243710
  C 1.511734 0.100212 0.077144
  C 0.620371 1.246007 -0.389371
  C -0.686372 1.210829 0.389623
  H -1.257000 2.126982 0.222124
  H -0.470494 1.141393 1.457391
  H 1.141150 2.191350 -0.221464
  H 0.408450 1.165635 -1.457127
  H 2.343096 -0.021658 -0.619783
  H 1.941563 0.381799 1.040971
  H 0.786933 -1.526191 1.295490
  H 1.303025 -2.009624 -0.304986
  H -0.704372 -1.566707 -1.295186
  H -1.193817 -2.076308 0.305499
  H -2.339245 -0.146919 0.618767
  H -1.958600 0.277527 -1.041682
 18
 8.772939
  C -1.515841 0.020846 -0.067721
  C -0.690317 -1.263368 -0.270523
  C 0.745840 -1.231194 0.270677
  C 1.513289 0.088489 0.067356
  C 0.622962 1.237891 -0.394842
  C -0.677760 1.208660 0.395099
  H -1.244686 2.128546 0.236774
  H -0.452019 1.134116 1.460426
  H 1.148291 2.182176 -0.236125
  H 0.400703 1.153817 -1.460209
  H 2.325596 -0.054746 -0.647557
  H 1.969815 0.376013 1.016944
  H 0.725327 -1.475246 1.334301
  H 1.294112 -2.035505 -0.224225
  H -0.658958 -1.506730 -1.334082
  H -1.202103 -2.091081 0.224724
  H -2.321481 -0.158413 0.646667
  H -1.984099 0.287904 -1.017692
 18
 8.032408
  C -1.516450 0.019326 -0.056841
  C -0.686049 -1.255179 -0.292306
  C 0.730355 -1.229735 0.292443
  C 1.514717 0.073507 0.056467
  C 0.629807 1.233731 -0.392737
  C -0.673653 1.210241 0.392982
  H -1.237441 2.130164 0.223753
  H -0.450638 1.147605 1.459734
  H 1.160335 2.173164 -0.223122
  H 0.409106 1.163644 -1.459513
  H 2.301330 -0.090614 -0.682465
  H 2.005542 0.358960 0.989364
  H 0.672371 -1.432076 1.363539
  H 1.283150 -2.057830 -0.156223
  H -0.620883 -1.455777 -1.363319
  H -1.208876 -2.102303 0.156728
  H -2.297228 -0.172706 0.681559
  H -2.016489 0.287236 -0.990050
 18
 7.205564
  C -1.516494 0.018690 -0.045930
  C -0.679918 -1.243633 -0.316438
  C 0.712984 -1.224796 0.316593
  C 1.515399 0.059391 0.045551
  C 0.633594 1.226336 -0.396002
  C -0.666406 1.208694 0.396243
  H -1.226836 2.131268 0.230935
  H -0.436842 1.145536 1.461541
  H 1.169030 2.163561 -0.230307
  H 0.405749 1.157522 -1.461316
  H 2.278197 -0.127032 -0.712807
  H 2.036186 0.345917 0.961690
  H 0.613576 -1.378885 1.392708
  H 1.269092 -2.078231 -0.077307
  H -0.576415 -1.395476 -1.392494
  H -1.212898 -2.111523 0.077855
  H -2.274570 -0.188023 0.711893
  H -2.044101 0.291316 -0.962411
 18
 6.530273
  C -1.516385 0.016349 -0.034476
  C -0.674884 -1.234268 -0.336465
  C 0.696888 -1.221805 0.336646
  C 1.515827 0.043549 0.034088
  C 0.640031 1.221356 -0.394702
  C -0.661930 1.209490 0.394924
  H -1.219106 2.132614 0.222331
  H -0.433152 1.155201 1.460920
  H 1.180528 2.154264 -0.221723
  H 0.412207 1.163447 -1.460710
  H 2.250311 -0.164207 -0.746395
  H 2.069949 0.325459 0.931805
  H 0.562290 -1.330942 1.414472
  H 1.254079 -2.095437 -0.008234
  H -0.538346 -1.341473 -1.414235
  H -1.216290 -2.117599 0.008830
  H -2.247627 -0.204411 0.745491
  H -2.074789 0.288445 -0.932569
 18
 5.935027
  C -1.516052 0.013841 -0.022558
  C -0.668878 -1.223192 -0.357143
  C 0.679896 -1.216921 0.357368
  C 1.515864 0.027525 0.022166
  C 0.645067 1.214681 -0.395863
  C -0.656076 1.208629 0.396054
  H -1.209967 2.133439 0.222707
  H -0.423877 1.157911 1.461485
  H 1.190560 2.144402 -0.222146
  H 0.413284 1.162320 -1.461303
  H 2.221839 -0.202027 -0.778304
  H 2.101826 0.305582 0.900605
  H 0.509500 -1.276869 1.434001
  H 1.236039 -2.110689 0.066972
  H -0.497937 -1.282132 -1.433741
  H -1.216907 -2.121805 -0.066295
  H -2.220559 -0.221900 0.777406
  H -2.103811 0.286747 -0.901412
 18
 5.546993
  C -1.515790 0.010446 -0.010161
  C -0.663891 -1.213344 -0.374874
  C 0.664053 -1.213060 0.375161
  C 1.515800 0.010603 0.009749
  C 0.651417 1.208988 -0.394855
  C -0.651603 1.208755 0.395009
  H -1.202070 2.134435 0.216311
  H -0.419220 1.165450 1.460795
  H 1.201755 2.134673 -0.215806
  H 0.418990 1.166074 -1.460651
  H 2.190517 -0.239435 -0.811347
  H 2.134342 0.281442 0.867743
  H 0.462589 -1.224495 1.448086
  H 1.216983 -2.123790 0.136948
  H -0.462413 -1.225354 -1.447795
  H -1.216703 -2.124011 -0.136138
  H -2.191165 -0.239443 0.810446
  H -2.133668 0.281330 -0.868619
 18
 5.385795
  C -1.515701 -0.000031 -0.000279
  C -0.651641 -1.204240 -0.395123
  C 0.651824 -1.203943 0.395399
  C 1.515743 0.000089 -0.000233
  C 0.651600 1.204158 -0.395207
  C -0.651813 1.203969 0.395443
  H -1.202729 2.129187 0.216667
  H -0.416950 1.164098 1.460806
  H 1.202359 2.129357 -0.216038
  H 0.416696 1.164670 -1.460564
  H 2.162276 -0.267367 -0.838430
  H 2.162782 0.267610 0.837579
  H 0.416951 -1.164162 1.460757
  H 1.202726 -2.129148 0.216574
  H -0.416775 -1.165099 -1.460483
  H -1.202443 -2.129349 -0.215678
  H -2.162973 -0.267320 0.837424
  H -2.162079 0.267483 -0.838610
