18
cyclohexane.twistboatR.xtb.xyz - modified
C       0.70850546      1.33992685     -0.00026818
C      -0.75991726      1.13899099     -0.39521265
C      -1.36902641     -0.01340914      0.39529628
C      -0.70846108     -1.33997219     -0.00025240
C       0.75993354     -1.13891877     -0.39512590
C       1.36899956      0.01342832      0.39553705
H       2.44444954      0.06794139      0.21683669
H       1.22388782     -0.17552712      1.46089488
H       1.32035366     -2.05828419     -0.21589170
H       0.83491009     -0.91282929     -1.46048383
H      -1.24706231     -1.78651508     -0.83847542
H      -0.77449228     -2.03699678      0.83757389
H      -1.22414344      0.17565549      1.46065988
H      -2.44443255     -0.06792581      0.21639520
H      -0.83502911      0.91304028     -1.46057211
H      -1.32026432      2.05836349     -0.21583320
H       0.77472949      2.03709464      0.83742022
H       1.24720656      1.78626113     -0.83857239
