6

Br        1.74393296760611    0.17737904321566    2.63457582737639
C         1.10281563645557   -0.02623237838748   -0.42514852667930
Cl        0.73829861896746   -0.14227287024000   -2.16181693789090
H         2.07198950950411    0.44403153559778   -0.30899110725729
H         1.11477964990180   -1.02687831877709   -0.00981902345823
H         0.33245361756495    0.57124299859112    0.04760976790933
